<?xml version="1.0" encoding="UTF-8"?>
<edges xmlns:xsi="http://www.w3.org/2001/XMLSchema-instance" xsi:noNamespaceSchemaLocation="http://sumo.dlr.de/xsd/edges_file.xsd">
   <edge id="a1i" from="a1" to="a" priority="78" numLanes="3" speed="19.444" />
   <edge id="a1o" from="a" to="a1" priority="46" numLanes="3" speed="11.111" />

   <edge id="a2i" from="a2" to="a" priority="78" numLanes="3" speed="19.444" />
   <edge id="a2o" from="a" to="a2" priority="46" numLanes="3" speed="11.111" />

   <edge id="a3i" from="a3" to="a" priority="78" numLanes="3" speed="19.444" />
   <edge id="a3o" from="a" to="a3" priority="46" numLanes="3" speed="11.111" />

   <edge id="a4i" from="a4" to="a" priority="78" numLanes="3" speed="19.444" />
   <edge id="a4o" from="a" to="a4" priority="46" numLanes="3" speed="11.111" />
   
   <edge id="b1i" from="b1" to="b" priority="78" numLanes="3" speed="19.444" />
   <edge id="b1o" from="b" to="b1" priority="46" numLanes="3" speed="11.111" />

   <edge id="b2i" from="b2" to="b" priority="78" numLanes="3" speed="19.444" />
   <edge id="b2o" from="b" to="b2" priority="46" numLanes="3" speed="11.111" />

   <edge id="b3i" from="b3" to="b" priority="78" numLanes="3" speed="19.444" />
   <edge id="b3o" from="b" to="b3" priority="46" numLanes="3" speed="11.111" />

   <edge id="b4i" from="b4" to="b" priority="78" numLanes="3" speed="19.444" />
   <edge id="b4o" from="b" to="b4" priority="46" numLanes="3" speed="11.111" />

   <edge id="c1i" from="c1" to="c" priority="78" numLanes="3" speed="19.444" />
   <edge id="c1o" from="c" to="c1" priority="46" numLanes="3" speed="11.111" />

   <edge id="c2i" from="c2" to="c" priority="78" numLanes="3" speed="19.444" />
   <edge id="c2o" from="c" to="c2" priority="46" numLanes="3" speed="11.111" />

   <edge id="c3i" from="c3" to="c" priority="78" numLanes="3" speed="19.444" />
   <edge id="c3o" from="c" to="c3" priority="46" numLanes="3" speed="11.111" />

   <edge id="c4i" from="c4" to="c" priority="78" numLanes="3" speed="19.444" />
   <edge id="c4o" from="c" to="c4" priority="46" numLanes="3" speed="11.111" />
 
   <edge id="d1i" from="d1" to="d" priority="78" numLanes="3" speed="19.444" />
   <edge id="d1o" from="d" to="d1" priority="46" numLanes="3" speed="11.111" />

   <edge id="d2i" from="d2" to="d" priority="78" numLanes="3" speed="19.444" />
   <edge id="d2o" from="d" to="d2" priority="46" numLanes="3" speed="11.111" />

   <edge id="d3i" from="d3" to="d" priority="78" numLanes="3" speed="19.444" />
   <edge id="d3o" from="d" to="d3" priority="46" numLanes="3" speed="11.111" />

   <edge id="d4i" from="d4" to="d" priority="78" numLanes="3" speed="19.444" />
   <edge id="d4o" from="d" to="d4" priority="46" numLanes="3" speed="11.111" />

   <edge id="0010" from="a2" to="b4" priority="78" numLanes="3" speed="19.444" />
   <edge id="1000" from="b4" to="a2" priority="46" numLanes="3" speed="11.111" />
   
   <edge id="1011" from="b3" to="c1" priority="78" numLanes="3" speed="19.444" />
   <edge id="1110" from="c1" to="b3" priority="46" numLanes="3" speed="11.111" />
  
   <edge id="1101" from="c4" to="d2" priority="78" numLanes="3" speed="19.444" />
   <edge id="0111" from="d2" to="c4" priority="46" numLanes="3" speed="11.111" />

   <edge id="0100" from="d1" to="a3" priority="78" numLanes="3" speed="19.444" />
   <edge id="0001" from="a3" to="d1" priority="46" numLanes="3" speed="11.111" />
 
</edges>
