<?xml version="1.0" encoding="UTF-8"?>

<!-- generated on 06/30/19 09:51:57 by Eclipse SUMO jtrrouter Version 1.2.0
<configuration xmlns:xsi="http://www.w3.org/2001/XMLSchema-instance" xsi:noNamespaceSchemaLocation="http://sumo.dlr.de/xsd/jtrrouterConfiguration.xsd">

    <input>
        <net-file value="intersection_a.net.xml"/>
        <route-files value="flowdef.rou.xml"/>
        <turn-ratio-files value="intersection.turndefs.xml"/>
    </input>

    <output>
        <output-file value="intersectiontest.rou.xml"/>
    </output>

    <processing>
        <no-internal-links value="true"/>
        <accept-all-destinations value="true"/>
    </processing>

    <random_number>
        <random value="true"/>
    </random_number>

</configuration>
-->

<routes xmlns:xsi="http://www.w3.org/2001/XMLSchema-instance" xsi:noNamespaceSchemaLocation="http://sumo.dlr.de/xsd/routes_file.xsd">
    <vType id="car" length="5.00" minGap="2.50" maxSpeed="20.00" guiShape="passenger" lcStrategic="1000000000" lcCooperative="1.0" lcAssertive="100" accel="2" decel="4.5" sigma="0.5"/>
    <vehicle id="b1i.0" type="car" depart="0.00">
        <route edges="b1i b3o 1011 c1i c2o"/>
    </vehicle>
    <vehicle id="f4i.0" type="car" depart="0.00">
        <route edges="f4i f2o -1101 d4i d3o 0102 h1i h2o 0212 j4i j1o 1211 c3i c2o"/>
    </vehicle>
    <vehicle id="h3i.0" type="car" depart="0.00">
        <route edges="h3i h2o 0212 j4i j2o"/>
    </vehicle>
    <vehicle id="a1i.0" type="car" depart="1.00">
        <route edges="a1i a3o 0001 d1i d2o 0111 c4i c3o 1112 j1i j2o"/>
    </vehicle>
    <vehicle id="b2i.0" type="car" depart="1.00">
        <route edges="b2i b3o 1011 c1i c2o"/>
    </vehicle>
    <vehicle id="e1i.0" type="car" depart="1.00">
        <route edges="e1i e3o -10-11 f1i f2o -1101 d4i d1o 0100 a3i a4o 00-10 e2i e4o"/>
    </vehicle>
    <vehicle id="j3i.0" type="car" depart="1.00">
        <route edges="j3i j1o 1211 c3i c4o 1101 d2i d4o 01-11 f2i f3o -11-12 g1i g2o -1202 h4i h3o"/>
    </vehicle>
    <vehicle id="a1i.1" type="car" depart="2.00">
        <route edges="a1i a4o 00-10 e2i e1o"/>
    </vehicle>
    <vehicle id="b1i.1" type="car" depart="2.00">
        <route edges="b1i b3o 1011 c1i c3o 1112 j1i j4o 1202 h2i h1o 0201 d3i d1o 0100 a3i a4o 00-10 e2i e1o"/>
    </vehicle>
    <vehicle id="c2i.0" type="car" depart="2.00">
        <route edges="c2i c4o 1101 d2i d4o 01-11 f2i f3o -11-12 g1i g2o -1202 h4i h2o 0212 j4i j1o 1211 c3i c2o"/>
    </vehicle>
    <vehicle id="j2i.0" type="car" depart="2.00">
        <route edges="j2i j3o"/>
    </vehicle>
    <vehicle id="g4i.0" type="car" depart="3.00">
        <route edges="g4i g3o"/>
    </vehicle>
    <vehicle id="j2i.1" type="car" depart="3.00">
        <route edges="j2i j3o"/>
    </vehicle>
    <vehicle id="j3i.1" type="car" depart="3.00">
        <route edges="j3i j4o 1202 h2i h1o 0201 d3i d2o 0111 c4i c2o"/>
    </vehicle>
    <vehicle id="b1i.2" type="car" depart="4.00">
        <route edges="b1i b3o 1011 c1i c4o 1101 d2i d4o 01-11 f2i f1o -11-10 e3i e4o"/>
    </vehicle>
    <vehicle id="c2i.1" type="car" depart="4.00">
        <route edges="c2i c1o 1110 b3i b4o 1000 a2i a1o"/>
    </vehicle>
    <vehicle id="g3i.0" type="car" depart="4.00">
        <route edges="g3i g1o -12-11 f3i f4o"/>
    </vehicle>
    <vehicle id="j2i.2" type="car" depart="4.00">
        <route edges="j2i j4o 1202 h2i h1o 0201 d3i d1o 0100 a3i a4o 00-10 e2i e1o"/>
    </vehicle>
    <vehicle id="c2i.2" type="car" depart="5.00">
        <route edges="c2i c1o 1110 b3i b1o"/>
    </vehicle>
    <vehicle id="f4i.1" type="car" depart="5.00">
        <route edges="f4i f2o -1101 d4i d2o 0111 c4i c1o 1110 b3i b1o"/>
    </vehicle>
    <vehicle id="g3i.1" type="car" depart="5.00">
        <route edges="g3i g1o -12-11 f3i f4o"/>
    </vehicle>
    <vehicle id="g4i.1" type="car" depart="5.00">
        <route edges="g4i g1o -12-11 f3i f2o -1101 d4i d2o 0111 c4i c2o"/>
    </vehicle>
    <vehicle id="a1i.2" type="car" depart="6.00">
        <route edges="a1i a2o 0010 b4i b2o"/>
    </vehicle>
    <vehicle id="g3i.2" type="car" depart="6.00">
        <route edges="g3i g1o -12-11 f3i f1o -11-10 e3i e2o -1000 a4i a2o 0010 b4i b2o"/>
    </vehicle>
    <vehicle id="j3i.2" type="car" depart="6.00">
        <route edges="j3i j2o"/>
    </vehicle>
    <vehicle id="c2i.3" type="car" depart="7.00">
        <route edges="c2i c1o 1110 b3i b1o"/>
    </vehicle>
    <vehicle id="e4i.0" type="car" depart="7.00">
        <route edges="e4i e1o"/>
    </vehicle>
    <vehicle id="g3i.3" type="car" depart="7.00">
        <route edges="g3i g1o -12-11 f3i f2o -1101 d4i d2o 0111 c4i c2o"/>
    </vehicle>
    <vehicle id="a1i.3" type="car" depart="8.00">
        <route edges="a1i a3o 0001 d1i d4o 01-11 f2i f1o -11-10 e3i e1o"/>
    </vehicle>
    <vehicle id="e1i.1" type="car" depart="8.00">
        <route edges="e1i e4o"/>
    </vehicle>
    <vehicle id="e4i.1" type="car" depart="8.00">
        <route edges="e4i e2o -1000 a4i a2o 0010 b4i b3o 1011 c1i c4o 1101 d2i d3o 0102 h1i h2o 0212 j4i j2o"/>
    </vehicle>
    <vehicle id="g3i.4" type="car" depart="8.00">
        <route edges="g3i g1o -12-11 f3i f2o -1101 d4i d3o 0102 h1i h2o 0212 j4i j1o 1211 c3i c1o 1110 b3i b4o 1000 a2i a4o 00-10 e2i e4o"/>
    </vehicle>
    <vehicle id="j2i.3" type="car" depart="8.00">
        <route edges="j2i j1o 1211 c3i c4o 1101 d2i d3o 0102 h1i h2o 0212 j4i j2o"/>
    </vehicle>
    <vehicle id="b2i.1" type="car" depart="9.00">
        <route edges="b2i b1o"/>
    </vehicle>
    <vehicle id="c2i.4" type="car" depart="9.00">
        <route edges="c2i c3o 1112 j1i j3o"/>
    </vehicle>
    <vehicle id="e4i.2" type="car" depart="9.00">
        <route edges="e4i e1o"/>
    </vehicle>
    <vehicle id="g4i.2" type="car" depart="9.00">
        <route edges="g4i g2o -1202 h4i h2o 0212 j4i j3o"/>
    </vehicle>
    <vehicle id="h3i.1" type="car" depart="9.00">
        <route edges="h3i h1o 0201 d3i d2o 0111 c4i c2o"/>
    </vehicle>
    <vehicle id="e1i.2" type="car" depart="10.00">
        <route edges="e1i e4o"/>
    </vehicle>
    <vehicle id="f4i.2" type="car" depart="10.00">
        <route edges="f4i f2o -1101 d4i d3o 0102 h1i h3o"/>
    </vehicle>
    <vehicle id="h3i.2" type="car" depart="10.00">
        <route edges="h3i h1o 0201 d3i d1o 0100 a3i a1o"/>
    </vehicle>
    <vehicle id="j3i.3" type="car" depart="10.00">
        <route edges="j3i j4o 1202 h2i h4o 02-12 g2i g1o -12-11 f3i f2o -1101 d4i d1o 0100 a3i a2o 0010 b4i b2o"/>
    </vehicle>
    <vehicle id="a1i.4" type="car" depart="11.00">
        <route edges="a1i a2o 0010 b4i b1o"/>
    </vehicle>
    <vehicle id="f4i.3" type="car" depart="11.00">
        <route edges="f4i f1o -11-10 e3i e1o"/>
    </vehicle>
    <vehicle id="g4i.3" type="car" depart="11.00">
        <route edges="g4i g2o -1202 h4i h3o"/>
    </vehicle>
    <vehicle id="h3i.3" type="car" depart="11.00">
        <route edges="h3i h1o 0201 d3i d1o 0100 a3i a4o 00-10 e2i e4o"/>
    </vehicle>
    <vehicle id="j2i.4" type="car" depart="11.00">
        <route edges="j2i j3o"/>
    </vehicle>
    <vehicle id="b1i.3" type="car" depart="12.00">
        <route edges="b1i b3o 1011 c1i c3o 1112 j1i j3o"/>
    </vehicle>
    <vehicle id="g3i.5" type="car" depart="12.00">
        <route edges="g3i g1o -12-11 f3i f2o -1101 d4i d3o 0102 h1i h4o 02-12 g2i g4o"/>
    </vehicle>
    <vehicle id="g4i.4" type="car" depart="12.00">
        <route edges="g4i g2o -1202 h4i h2o 0212 j4i j3o"/>
    </vehicle>
    <vehicle id="h3i.4" type="car" depart="12.00">
        <route edges="h3i h1o 0201 d3i d4o 01-11 f2i f3o -11-12 g1i g4o"/>
    </vehicle>
    <vehicle id="j2i.5" type="car" depart="12.00">
        <route edges="j2i j4o 1202 h2i h4o 02-12 g2i g4o"/>
    </vehicle>
    <vehicle id="e4i.3" type="car" depart="13.00">
        <route edges="e4i e3o -10-11 f1i f4o"/>
    </vehicle>
    <vehicle id="f4i.4" type="car" depart="13.00">
        <route edges="f4i f1o -11-10 e3i e1o"/>
    </vehicle>
    <vehicle id="b2i.2" type="car" depart="14.00">
        <route edges="b2i b1o"/>
    </vehicle>
    <vehicle id="c2i.5" type="car" depart="14.00">
        <route edges="c2i c4o 1101 d2i d3o 0102 h1i h2o 0212 j4i j3o"/>
    </vehicle>
    <vehicle id="g3i.6" type="car" depart="14.00">
        <route edges="g3i g4o"/>
    </vehicle>
    <vehicle id="j2i.6" type="car" depart="14.00">
        <route edges="j2i j3o"/>
    </vehicle>
    <vehicle id="c2i.6" type="car" depart="15.00">
        <route edges="c2i c3o 1112 j1i j2o"/>
    </vehicle>
    <vehicle id="f4i.5" type="car" depart="15.00">
        <route edges="f4i f2o -1101 d4i d2o 0111 c4i c2o"/>
    </vehicle>
    <vehicle id="g4i.5" type="car" depart="15.00">
        <route edges="g4i g3o"/>
    </vehicle>
    <vehicle id="e1i.3" type="car" depart="16.00">
        <route edges="e1i e3o -10-11 f1i f2o -1101 d4i d2o 0111 c4i c2o"/>
    </vehicle>
    <vehicle id="e4i.4" type="car" depart="16.00">
        <route edges="e4i e1o"/>
    </vehicle>
    <vehicle id="g3i.7" type="car" depart="16.00">
        <route edges="g3i g2o -1202 h4i h1o 0201 d3i d2o 0111 c4i c1o 1110 b3i b2o"/>
    </vehicle>
    <vehicle id="j2i.7" type="car" depart="16.00">
        <route edges="j2i j3o"/>
    </vehicle>
    <vehicle id="b2i.3" type="car" depart="17.00">
        <route edges="b2i b4o 1000 a2i a3o 0001 d1i d4o 01-11 f2i f4o"/>
    </vehicle>
    <vehicle id="e1i.4" type="car" depart="17.00">
        <route edges="e1i e4o"/>
    </vehicle>
    <vehicle id="e4i.5" type="car" depart="17.00">
        <route edges="e4i e2o -1000 a4i a1o"/>
    </vehicle>
    <vehicle id="f4i.6" type="car" depart="17.00">
        <route edges="f4i f1o -11-10 e3i e4o"/>
    </vehicle>
    <vehicle id="j2i.8" type="car" depart="17.00">
        <route edges="j2i j3o"/>
    </vehicle>
    <vehicle id="j3i.4" type="car" depart="17.00">
        <route edges="j3i j1o 1211 c3i c1o 1110 b3i b1o"/>
    </vehicle>
    <vehicle id="e4i.6" type="car" depart="18.00">
        <route edges="e4i e3o -10-11 f1i f3o -11-12 g1i g3o"/>
    </vehicle>
    <vehicle id="g3i.8" type="car" depart="18.00">
        <route edges="g3i g1o -12-11 f3i f1o -11-10 e3i e4o"/>
    </vehicle>
    <vehicle id="j2i.9" type="car" depart="18.00">
        <route edges="j2i j4o 1202 h2i h3o"/>
    </vehicle>
    <vehicle id="j3i.5" type="car" depart="18.00">
        <route edges="j3i j1o 1211 c3i c2o"/>
    </vehicle>
    <vehicle id="b1i.4" type="car" depart="19.00">
        <route edges="b1i b4o 1000 a2i a1o"/>
    </vehicle>
    <vehicle id="b2i.4" type="car" depart="19.00">
        <route edges="b2i b4o 1000 a2i a3o 0001 d1i d2o 0111 c4i c2o"/>
    </vehicle>
    <vehicle id="e1i.5" type="car" depart="19.00">
        <route edges="e1i e2o -1000 a4i a3o 0001 d1i d3o 0102 h1i h4o 02-12 g2i g1o -12-11 f3i f4o"/>
    </vehicle>
    <vehicle id="j3i.6" type="car" depart="19.00">
        <route edges="j3i j1o 1211 c3i c2o"/>
    </vehicle>
    <vehicle id="a1i.5" type="car" depart="21.00">
        <route edges="a1i a4o 00-10 e2i e1o"/>
    </vehicle>
    <vehicle id="b2i.5" type="car" depart="21.00">
        <route edges="b2i b1o"/>
    </vehicle>
    <vehicle id="e1i.6" type="car" depart="21.00">
        <route edges="e1i e4o"/>
    </vehicle>
    <vehicle id="e4i.7" type="car" depart="21.00">
        <route edges="e4i e1o"/>
    </vehicle>
    <vehicle id="f4i.7" type="car" depart="21.00">
        <route edges="f4i f1o -11-10 e3i e4o"/>
    </vehicle>
    <vehicle id="g3i.9" type="car" depart="21.00">
        <route edges="g3i g1o -12-11 f3i f1o -11-10 e3i e2o -1000 a4i a1o"/>
    </vehicle>
    <vehicle id="g4i.6" type="car" depart="21.00">
        <route edges="g4i g2o -1202 h4i h3o"/>
    </vehicle>
    <vehicle id="e4i.8" type="car" depart="22.00">
        <route edges="e4i e2o -1000 a4i a3o 0001 d1i d2o 0111 c4i c2o"/>
    </vehicle>
    <vehicle id="f4i.8" type="car" depart="22.00">
        <route edges="f4i f2o -1101 d4i d3o 0102 h1i h2o 0212 j4i j2o"/>
    </vehicle>
    <vehicle id="g4i.7" type="car" depart="22.00">
        <route edges="g4i g2o -1202 h4i h1o 0201 d3i d4o 01-11 f2i f3o -11-12 g1i g3o"/>
    </vehicle>
    <vehicle id="h3i.5" type="car" depart="22.00">
        <route edges="h3i h4o 02-12 g2i g3o"/>
    </vehicle>
    <vehicle id="a1i.6" type="car" depart="23.00">
        <route edges="a1i a2o 0010 b4i b1o"/>
    </vehicle>
    <vehicle id="b1i.5" type="car" depart="23.00">
        <route edges="b1i b3o 1011 c1i c4o 1101 d2i d4o 01-11 f2i f1o -11-10 e3i e2o -1000 a4i a3o 0001 d1i d3o 0102 h1i h2o 0212 j4i j3o"/>
    </vehicle>
    <vehicle id="b2i.6" type="car" depart="23.00">
        <route edges="b2i b3o 1011 c1i c3o 1112 j1i j3o"/>
    </vehicle>
    <vehicle id="e1i.7" type="car" depart="23.00">
        <route edges="e1i e2o -1000 a4i a1o"/>
    </vehicle>
    <vehicle id="g4i.8" type="car" depart="23.00">
        <route edges="g4i g2o -1202 h4i h3o"/>
    </vehicle>
    <vehicle id="h3i.6" type="car" depart="23.00">
        <route edges="h3i h1o 0201 d3i d1o 0100 a3i a2o 0010 b4i b2o"/>
    </vehicle>
    <vehicle id="j3i.7" type="car" depart="23.00">
        <route edges="j3i j2o"/>
    </vehicle>
    <vehicle id="e4i.9" type="car" depart="24.00">
        <route edges="e4i e2o -1000 a4i a3o 0001 d1i d3o 0102 h1i h4o 02-12 g2i g4o"/>
    </vehicle>
    <vehicle id="f4i.9" type="car" depart="24.00">
        <route edges="f4i f2o -1101 d4i d3o 0102 h1i h3o"/>
    </vehicle>
    <vehicle id="g3i.10" type="car" depart="24.00">
        <route edges="g3i g2o -1202 h4i h1o 0201 d3i d1o 0100 a3i a2o 0010 b4i b2o"/>
    </vehicle>
    <vehicle id="g4i.9" type="car" depart="24.00">
        <route edges="g4i g3o"/>
    </vehicle>
    <vehicle id="h3i.7" type="car" depart="24.00">
        <route edges="h3i h2o 0212 j4i j2o"/>
    </vehicle>
    <vehicle id="j2i.10" type="car" depart="24.00">
        <route edges="j2i j4o 1202 h2i h4o 02-12 g2i g4o"/>
    </vehicle>
    <vehicle id="a1i.7" type="car" depart="25.00">
        <route edges="a1i a2o 0010 b4i b2o"/>
    </vehicle>
    <vehicle id="b2i.7" type="car" depart="25.00">
        <route edges="b2i b4o 1000 a2i a4o 00-10 e2i e4o"/>
    </vehicle>
    <vehicle id="f4i.10" type="car" depart="25.00">
        <route edges="f4i f1o -11-10 e3i e2o -1000 a4i a3o 0001 d1i d3o 0102 h1i h4o 02-12 g2i g1o -12-11 f3i f4o"/>
    </vehicle>
    <vehicle id="g3i.11" type="car" depart="25.00">
        <route edges="g3i g2o -1202 h4i h1o 0201 d3i d2o 0111 c4i c2o"/>
    </vehicle>
    <vehicle id="j2i.11" type="car" depart="25.00">
        <route edges="j2i j3o"/>
    </vehicle>
    <vehicle id="a1i.8" type="car" depart="26.00">
        <route edges="a1i a2o 0010 b4i b3o 1011 c1i c2o"/>
    </vehicle>
    <vehicle id="b2i.8" type="car" depart="26.00">
        <route edges="b2i b1o"/>
    </vehicle>
    <vehicle id="e4i.10" type="car" depart="26.00">
        <route edges="e4i e2o -1000 a4i a3o 0001 d1i d4o 01-11 f2i f1o -11-10 e3i e1o"/>
    </vehicle>
    <vehicle id="a1i.9" type="car" depart="27.00">
        <route edges="a1i a3o 0001 d1i d2o 0111 c4i c3o 1112 j1i j4o 1202 h2i h1o 0201 d3i d4o 01-11 f2i f3o -11-12 g1i g3o"/>
    </vehicle>
    <vehicle id="b2i.9" type="car" depart="27.00">
        <route edges="b2i b4o 1000 a2i a3o 0001 d1i d2o 0111 c4i c3o 1112 j1i j2o"/>
    </vehicle>
    <vehicle id="e1i.8" type="car" depart="27.00">
        <route edges="e1i e4o"/>
    </vehicle>
    <vehicle id="g3i.12" type="car" depart="27.00">
        <route edges="g3i g2o -1202 h4i h1o 0201 d3i d2o 0111 c4i c1o 1110 b3i b4o 1000 a2i a4o 00-10 e2i e1o"/>
    </vehicle>
    <vehicle id="j2i.12" type="car" depart="27.00">
        <route edges="j2i j1o 1211 c3i c1o 1110 b3i b1o"/>
    </vehicle>
    <vehicle id="b2i.10" type="car" depart="28.00">
        <route edges="b2i b4o 1000 a2i a4o 00-10 e2i e1o"/>
    </vehicle>
    <vehicle id="e1i.9" type="car" depart="28.00">
        <route edges="e1i e2o -1000 a4i a2o 0010 b4i b1o"/>
    </vehicle>
    <vehicle id="a1i.10" type="car" depart="29.00">
        <route edges="a1i a2o 0010 b4i b2o"/>
    </vehicle>
    <vehicle id="b2i.11" type="car" depart="29.00">
        <route edges="b2i b1o"/>
    </vehicle>
    <vehicle id="e4i.11" type="car" depart="29.00">
        <route edges="e4i e3o -10-11 f1i f4o"/>
    </vehicle>
    <vehicle id="g4i.10" type="car" depart="29.00">
        <route edges="g4i g3o"/>
    </vehicle>
    <vehicle id="a1i.11" type="car" depart="30.00">
        <route edges="a1i a3o 0001 d1i d4o 01-11 f2i f3o -11-12 g1i g2o -1202 h4i h1o 0201 d3i d1o 0100 a3i a1o"/>
    </vehicle>
    <vehicle id="b2i.12" type="car" depart="30.00">
        <route edges="b2i b4o 1000 a2i a4o 00-10 e2i e1o"/>
    </vehicle>
    <vehicle id="c2i.7" type="car" depart="30.00">
        <route edges="c2i c3o 1112 j1i j3o"/>
    </vehicle>
    <vehicle id="g3i.13" type="car" depart="30.00">
        <route edges="g3i g2o -1202 h4i h2o 0212 j4i j3o"/>
    </vehicle>
    <vehicle id="g4i.11" type="car" depart="30.00">
        <route edges="g4i g3o"/>
    </vehicle>
    <vehicle id="h3i.8" type="car" depart="30.00">
        <route edges="h3i h4o 02-12 g2i g1o -12-11 f3i f1o -11-10 e3i e1o"/>
    </vehicle>
    <vehicle id="a1i.12" type="car" depart="31.00">
        <route edges="a1i a2o 0010 b4i b3o 1011 c1i c3o 1112 j1i j4o 1202 h2i h3o"/>
    </vehicle>
    <vehicle id="b1i.6" type="car" depart="31.00">
        <route edges="b1i b4o 1000 a2i a3o 0001 d1i d2o 0111 c4i c2o"/>
    </vehicle>
    <vehicle id="e1i.10" type="car" depart="31.00">
        <route edges="e1i e4o"/>
    </vehicle>
    <vehicle id="b1i.7" type="car" depart="32.00">
        <route edges="b1i b4o 1000 a2i a1o"/>
    </vehicle>
    <vehicle id="c2i.8" type="car" depart="33.00">
        <route edges="c2i c1o 1110 b3i b2o"/>
    </vehicle>
    <vehicle id="g4i.12" type="car" depart="33.00">
        <route edges="g4i g3o"/>
    </vehicle>
    <vehicle id="j2i.13" type="car" depart="33.00">
        <route edges="j2i j1o 1211 c3i c1o 1110 b3i b2o"/>
    </vehicle>
    <vehicle id="a1i.13" type="car" depart="34.00">
        <route edges="a1i a2o 0010 b4i b3o 1011 c1i c3o 1112 j1i j3o"/>
    </vehicle>
    <vehicle id="c2i.9" type="car" depart="34.00">
        <route edges="c2i c3o 1112 j1i j4o 1202 h2i h4o 02-12 g2i g3o"/>
    </vehicle>
    <vehicle id="f4i.11" type="car" depart="34.00">
        <route edges="f4i f2o -1101 d4i d3o 0102 h1i h2o 0212 j4i j2o"/>
    </vehicle>
    <vehicle id="g3i.14" type="car" depart="34.00">
        <route edges="g3i g4o"/>
    </vehicle>
    <vehicle id="h3i.9" type="car" depart="34.00">
        <route edges="h3i h4o 02-12 g2i g1o -12-11 f3i f1o -11-10 e3i e2o -1000 a4i a2o 0010 b4i b2o"/>
    </vehicle>
    <vehicle id="a1i.14" type="car" depart="35.00">
        <route edges="a1i a3o 0001 d1i d2o 0111 c4i c2o"/>
    </vehicle>
    <vehicle id="b1i.8" type="car" depart="35.00">
        <route edges="b1i b3o 1011 c1i c4o 1101 d2i d4o 01-11 f2i f1o -11-10 e3i e4o"/>
    </vehicle>
    <vehicle id="g3i.15" type="car" depart="35.00">
        <route edges="g3i g1o -12-11 f3i f1o -11-10 e3i e4o"/>
    </vehicle>
    <vehicle id="g4i.13" type="car" depart="35.00">
        <route edges="g4i g2o -1202 h4i h2o 0212 j4i j3o"/>
    </vehicle>
    <vehicle id="h3i.10" type="car" depart="35.00">
        <route edges="h3i h4o 02-12 g2i g3o"/>
    </vehicle>
    <vehicle id="c2i.10" type="car" depart="36.00">
        <route edges="c2i c4o 1101 d2i d3o 0102 h1i h2o 0212 j4i j2o"/>
    </vehicle>
    <vehicle id="e1i.11" type="car" depart="36.00">
        <route edges="e1i e3o -10-11 f1i f4o"/>
    </vehicle>
    <vehicle id="h3i.11" type="car" depart="36.00">
        <route edges="h3i h4o 02-12 g2i g4o"/>
    </vehicle>
    <vehicle id="a1i.15" type="car" depart="37.00">
        <route edges="a1i a4o 00-10 e2i e4o"/>
    </vehicle>
    <vehicle id="c2i.11" type="car" depart="37.00">
        <route edges="c2i c1o 1110 b3i b1o"/>
    </vehicle>
    <vehicle id="e1i.12" type="car" depart="37.00">
        <route edges="e1i e2o -1000 a4i a1o"/>
    </vehicle>
    <vehicle id="e4i.12" type="car" depart="37.00">
        <route edges="e4i e2o -1000 a4i a3o 0001 d1i d3o 0102 h1i h4o 02-12 g2i g1o -12-11 f3i f2o -1101 d4i d2o 0111 c4i c1o 1110 b3i b2o"/>
    </vehicle>
    <vehicle id="f4i.12" type="car" depart="37.00">
        <route edges="f4i f1o -11-10 e3i e2o -1000 a4i a2o 0010 b4i b3o 1011 c1i c3o 1112 j1i j4o 1202 h2i h1o 0201 d3i d2o 0111 c4i c2o"/>
    </vehicle>
    <vehicle id="g3i.16" type="car" depart="37.00">
        <route edges="g3i g4o"/>
    </vehicle>
    <vehicle id="j3i.8" type="car" depart="37.00">
        <route edges="j3i j1o 1211 c3i c1o 1110 b3i b2o"/>
    </vehicle>
    <vehicle id="b2i.13" type="car" depart="38.00">
        <route edges="b2i b1o"/>
    </vehicle>
    <vehicle id="f4i.13" type="car" depart="38.00">
        <route edges="f4i f3o -11-12 g1i g2o -1202 h4i h3o"/>
    </vehicle>
    <vehicle id="g3i.17" type="car" depart="38.00">
        <route edges="g3i g1o -12-11 f3i f1o -11-10 e3i e2o -1000 a4i a2o 0010 b4i b1o"/>
    </vehicle>
    <vehicle id="g4i.14" type="car" depart="38.00">
        <route edges="g4i g2o -1202 h4i h3o"/>
    </vehicle>
    <vehicle id="j2i.14" type="car" depart="38.00">
        <route edges="j2i j3o"/>
    </vehicle>
    <vehicle id="a1i.16" type="car" depart="39.00">
        <route edges="a1i a2o 0010 b4i b3o 1011 c1i c3o 1112 j1i j2o"/>
    </vehicle>
    <vehicle id="b1i.9" type="car" depart="39.00">
        <route edges="b1i b2o"/>
    </vehicle>
    <vehicle id="b2i.14" type="car" depart="39.00">
        <route edges="b2i b3o 1011 c1i c2o"/>
    </vehicle>
    <vehicle id="c2i.12" type="car" depart="39.00">
        <route edges="c2i c1o 1110 b3i b2o"/>
    </vehicle>
    <vehicle id="e1i.13" type="car" depart="39.00">
        <route edges="e1i e2o -1000 a4i a1o"/>
    </vehicle>
    <vehicle id="g4i.15" type="car" depart="39.00">
        <route edges="g4i g3o"/>
    </vehicle>
    <vehicle id="g4i.16" type="car" depart="40.00">
        <route edges="g4i g1o -12-11 f3i f4o"/>
    </vehicle>
    <vehicle id="h3i.12" type="car" depart="40.00">
        <route edges="h3i h4o 02-12 g2i g4o"/>
    </vehicle>
    <vehicle id="j3i.9" type="car" depart="40.00">
        <route edges="j3i j4o 1202 h2i h3o"/>
    </vehicle>
    <vehicle id="e1i.14" type="car" depart="41.00">
        <route edges="e1i e3o -10-11 f1i f4o"/>
    </vehicle>
    <vehicle id="b2i.15" type="car" depart="42.00">
        <route edges="b2i b4o 1000 a2i a3o 0001 d1i d4o 01-11 f2i f4o"/>
    </vehicle>
    <vehicle id="e4i.13" type="car" depart="42.00">
        <route edges="e4i e2o -1000 a4i a1o"/>
    </vehicle>
    <vehicle id="g3i.18" type="car" depart="42.00">
        <route edges="g3i g4o"/>
    </vehicle>
    <vehicle id="h3i.13" type="car" depart="42.00">
        <route edges="h3i h4o 02-12 g2i g3o"/>
    </vehicle>
    <vehicle id="j3i.10" type="car" depart="42.00">
        <route edges="j3i j2o"/>
    </vehicle>
    <vehicle id="e4i.14" type="car" depart="43.00">
        <route edges="e4i e3o -10-11 f1i f2o -1101 d4i d3o 0102 h1i h3o"/>
    </vehicle>
    <vehicle id="f4i.14" type="car" depart="43.00">
        <route edges="f4i f1o -11-10 e3i e2o -1000 a4i a3o 0001 d1i d2o 0111 c4i c1o 1110 b3i b1o"/>
    </vehicle>
    <vehicle id="h3i.14" type="car" depart="43.00">
        <route edges="h3i h4o 02-12 g2i g4o"/>
    </vehicle>
    <vehicle id="j2i.15" type="car" depart="43.00">
        <route edges="j2i j3o"/>
    </vehicle>
    <vehicle id="e1i.15" type="car" depart="44.00">
        <route edges="e1i e3o -10-11 f1i f4o"/>
    </vehicle>
    <vehicle id="g4i.17" type="car" depart="44.00">
        <route edges="g4i g2o -1202 h4i h3o"/>
    </vehicle>
    <vehicle id="a1i.17" type="car" depart="45.00">
        <route edges="a1i a4o 00-10 e2i e3o -10-11 f1i f3o -11-12 g1i g4o"/>
    </vehicle>
    <vehicle id="c2i.13" type="car" depart="45.00">
        <route edges="c2i c1o 1110 b3i b1o"/>
    </vehicle>
    <vehicle id="e1i.16" type="car" depart="45.00">
        <route edges="e1i e2o -1000 a4i a2o 0010 b4i b1o"/>
    </vehicle>
    <vehicle id="e4i.15" type="car" depart="45.00">
        <route edges="e4i e3o -10-11 f1i f4o"/>
    </vehicle>
    <vehicle id="j2i.16" type="car" depart="45.00">
        <route edges="j2i j3o"/>
    </vehicle>
    <vehicle id="a1i.18" type="car" depart="46.00">
        <route edges="a1i a3o 0001 d1i d2o 0111 c4i c2o"/>
    </vehicle>
    <vehicle id="b2i.16" type="car" depart="46.00">
        <route edges="b2i b1o"/>
    </vehicle>
    <vehicle id="c2i.14" type="car" depart="46.00">
        <route edges="c2i c1o 1110 b3i b2o"/>
    </vehicle>
    <vehicle id="j2i.17" type="car" depart="46.00">
        <route edges="j2i j1o 1211 c3i c4o 1101 d2i d1o 0100 a3i a2o 0010 b4i b1o"/>
    </vehicle>
    <vehicle id="j3i.11" type="car" depart="46.00">
        <route edges="j3i j1o 1211 c3i c4o 1101 d2i d3o 0102 h1i h2o 0212 j4i j3o"/>
    </vehicle>
    <vehicle id="a1i.19" type="car" depart="47.00">
        <route edges="a1i a4o 00-10 e2i e1o"/>
    </vehicle>
    <vehicle id="b2i.17" type="car" depart="47.00">
        <route edges="b2i b4o 1000 a2i a4o 00-10 e2i e4o"/>
    </vehicle>
    <vehicle id="c2i.15" type="car" depart="47.00">
        <route edges="c2i c1o 1110 b3i b4o 1000 a2i a1o"/>
    </vehicle>
    <vehicle id="j3i.12" type="car" depart="47.00">
        <route edges="j3i j2o"/>
    </vehicle>
    <vehicle id="e4i.16" type="car" depart="48.00">
        <route edges="e4i e2o -1000 a4i a2o 0010 b4i b1o"/>
    </vehicle>
    <vehicle id="g4i.18" type="car" depart="48.00">
        <route edges="g4i g2o -1202 h4i h3o"/>
    </vehicle>
    <vehicle id="b2i.18" type="car" depart="49.00">
        <route edges="b2i b1o"/>
    </vehicle>
    <vehicle id="c2i.16" type="car" depart="49.00">
        <route edges="c2i c4o 1101 d2i d4o 01-11 f2i f1o -11-10 e3i e1o"/>
    </vehicle>
    <vehicle id="g3i.19" type="car" depart="49.00">
        <route edges="g3i g1o -12-11 f3i f4o"/>
    </vehicle>
    <vehicle id="j3i.13" type="car" depart="49.00">
        <route edges="j3i j1o 1211 c3i c1o 1110 b3i b1o"/>
    </vehicle>
    <vehicle id="b1i.10" type="car" depart="50.00">
        <route edges="b1i b2o"/>
    </vehicle>
    <vehicle id="b2i.19" type="car" depart="50.00">
        <route edges="b2i b3o 1011 c1i c4o 1101 d2i d3o 0102 h1i h3o"/>
    </vehicle>
    <vehicle id="c2i.17" type="car" depart="50.00">
        <route edges="c2i c3o 1112 j1i j3o"/>
    </vehicle>
    <vehicle id="e1i.17" type="car" depart="50.00">
        <route edges="e1i e3o -10-11 f1i f4o"/>
    </vehicle>
    <vehicle id="e4i.17" type="car" depart="50.00">
        <route edges="e4i e3o -10-11 f1i f4o"/>
    </vehicle>
    <vehicle id="g3i.20" type="car" depart="50.00">
        <route edges="g3i g2o -1202 h4i h3o"/>
    </vehicle>
    <vehicle id="j2i.18" type="car" depart="50.00">
        <route edges="j2i j1o 1211 c3i c4o 1101 d2i d1o 0100 a3i a4o 00-10 e2i e3o -10-11 f1i f4o"/>
    </vehicle>
    <vehicle id="c2i.18" type="car" depart="51.00">
        <route edges="c2i c3o 1112 j1i j4o 1202 h2i h1o 0201 d3i d2o 0111 c4i c2o"/>
    </vehicle>
    <vehicle id="e1i.18" type="car" depart="51.00">
        <route edges="e1i e2o -1000 a4i a3o 0001 d1i d4o 01-11 f2i f4o"/>
    </vehicle>
    <vehicle id="e4i.18" type="car" depart="51.00">
        <route edges="e4i e2o -1000 a4i a1o"/>
    </vehicle>
    <vehicle id="f4i.15" type="car" depart="51.00">
        <route edges="f4i f3o -11-12 g1i g2o -1202 h4i h2o 0212 j4i j2o"/>
    </vehicle>
    <vehicle id="g4i.19" type="car" depart="51.00">
        <route edges="g4i g3o"/>
    </vehicle>
    <vehicle id="j3i.14" type="car" depart="51.00">
        <route edges="j3i j4o 1202 h2i h3o"/>
    </vehicle>
    <vehicle id="b1i.11" type="car" depart="52.00">
        <route edges="b1i b2o"/>
    </vehicle>
    <vehicle id="c2i.19" type="car" depart="52.00">
        <route edges="c2i c1o 1110 b3i b1o"/>
    </vehicle>
    <vehicle id="g4i.20" type="car" depart="52.00">
        <route edges="g4i g3o"/>
    </vehicle>
    <vehicle id="f4i.16" type="car" depart="53.00">
        <route edges="f4i f1o -11-10 e3i e4o"/>
    </vehicle>
    <vehicle id="h3i.15" type="car" depart="53.00">
        <route edges="h3i h4o 02-12 g2i g4o"/>
    </vehicle>
    <vehicle id="j2i.19" type="car" depart="53.00">
        <route edges="j2i j4o 1202 h2i h3o"/>
    </vehicle>
    <vehicle id="a1i.20" type="car" depart="54.00">
        <route edges="a1i a3o 0001 d1i d4o 01-11 f2i f4o"/>
    </vehicle>
    <vehicle id="b2i.20" type="car" depart="54.00">
        <route edges="b2i b4o 1000 a2i a1o"/>
    </vehicle>
    <vehicle id="e1i.19" type="car" depart="54.00">
        <route edges="e1i e3o -10-11 f1i f2o -1101 d4i d2o 0111 c4i c3o 1112 j1i j3o"/>
    </vehicle>
    <vehicle id="f4i.17" type="car" depart="54.00">
        <route edges="f4i f2o -1101 d4i d3o 0102 h1i h3o"/>
    </vehicle>
    <vehicle id="g3i.21" type="car" depart="54.00">
        <route edges="g3i g1o -12-11 f3i f1o -11-10 e3i e4o"/>
    </vehicle>
    <vehicle id="g4i.21" type="car" depart="54.00">
        <route edges="g4i g3o"/>
    </vehicle>
    <vehicle id="j2i.20" type="car" depart="54.00">
        <route edges="j2i j1o 1211 c3i c1o 1110 b3i b2o"/>
    </vehicle>
    <vehicle id="a1i.21" type="car" depart="55.00">
        <route edges="a1i a4o 00-10 e2i e4o"/>
    </vehicle>
    <vehicle id="b1i.12" type="car" depart="55.00">
        <route edges="b1i b3o 1011 c1i c4o 1101 d2i d1o 0100 a3i a1o"/>
    </vehicle>
    <vehicle id="b2i.21" type="car" depart="55.00">
        <route edges="b2i b3o 1011 c1i c3o 1112 j1i j2o"/>
    </vehicle>
    <vehicle id="f4i.18" type="car" depart="55.00">
        <route edges="f4i f3o -11-12 g1i g4o"/>
    </vehicle>
    <vehicle id="f4i.19" type="car" depart="56.00">