<?xml version="1.0" encoding="UTF-8"?>
<nodes xmlns:xsi="http://www.w3.org/2001/XMLSchema-instance" xsi:noNamespaceSchemaLocation="http://sumo.dlr.de/xsd/nodes_file.xsd">
   <node id="a" x="0.0" y="0.0"  type="traffic_light" />
   <node id="a1" x="0.0" y="-150.0" />
   <node id="a2" x="150.0" y="0.0" />
   <node id="a3" x="0.0" y="150.0" />
   <node id="a4" x="-150.0" y="0.0" />

   <node id="b" x="500.0" y="0.0"  type="traffic_light" />
   <node id="b1" x="500.0" y="-150.0" />
   <node id="b2" x="650.0" y="0.0" />
   <node id="b3" x="500.0" y="150.0" />
   <node id="b4" x="350.0" y="0.0" />  

   <node id="c" x="500.0" y="500.0" type="traffic_light" />
   <node id="c1" x="500.0" y="350.0" />
   <node id="c2" x="650.0" y="500.0" />
   <node id="c3" x="500.0" y="650.0" />
   <node id="c4" x="350.0" y="500.0"/>  

   <node id="d" x="0.0" y="500.0" type="traffic_light" />
   <node id="d1" x="0.0" y="350.0" />
   <node id="d2" x="150.0" y="500.0" />
   <node id="d3" x="0.0" y="650.0" />
   <node id="d4" x="-150.0" y="500.0" />

   <node id="e" x="-500.0" y="0.0" type="traffic_light" />
   <node id="e1" x="-500.0" y="-150.0" />
   <node id="e2" x="-350.0" y="0.0" />
   <node id="e3" x="-500.0" y="150.0" />
   <node id="e4" x="-650.0" y="0.0" />

   <node id="f" x="-500.0" y="500.0" type="traffic_light" />
   <node id="f1" x="-500.0" y="350.0" />
   <node id="f2" x="-350.0" y="500.0" />
   <node id="f3" x="-500.0" y="650.0" />
   <node id="f4" x="-650.0" y="500.0" />

   <node id="g" x="-500.0" y="1000.0" type="traffic_light" />
   <node id="g1" x="-500.0" y="850.0" />
   <node id="g2" x="-350.0" y="1000.0" />
   <node id="g3" x="-500.0" y="1150.0" />
   <node id="g4" x="-650.0" y="1000.0" />

   <node id="h" x="0.0" y="1000.0" type="traffic_light" />
   <node id="h1" x="0.0" y="850.0" />
   <node id="h2" x="150.0" y="1000.0" />
   <node id="h3" x="0.0" y="1150.0" />
   <node id="h4" x="-150.0" y="1000.0" />

   <node id="j" x="500.0" y="1000.0" type="traffic_light" />
   <node id="j1" x="500.0" y="850.0" />
   <node id="j2" x="650.0" y="1000.0" />
   <node id="j3" x="500.0" y="1150.0" />
   <node id="j4" x="350.0" y="1000.0" />
</nodes>