<routes>
        <vType id="ty_through" accel="0.8" decel="4.5" sigma="0.5" length="5" minGap="2.5" maxSpeed="20" guiShape="passenger"/>
        <vType id="ty_left" accel="0.8" decel="4.5" sigma="0.5" length="5" minGap="3" maxSpeed="20" guiShape="passenger"/>
    
        <route id="0" edges="4i 3o" />
        <route id="1" edges="4i 2o " />
        <route id="2" edges="2i 1o " />
        <route id="3" edges="2i 3o " />
        <route id="4" edges="3i 4o " />
        <route id="5" edges="3i 1o " />
        <route id="6" edges="1i 2o " />
        <route id="7" edges="1i 4o " />
    <vehicle id="w2_1" type="ty_through" route="6" depart="2" departspeed="15"/>
    <vehicle id="n1_1" type="ty_left" route="1" depart="12" departspeed="10"/>
    <vehicle id="n1_2" type="ty_left" route="1" depart="15" departspeed="10"/>
    <vehicle id="e1_1" type="ty_left" route="3" depart="33" departspeed="10"/>
    <vehicle id="s2_1" type="ty_through" route="4" depart="36" departspeed="15"/>
    <vehicle id="e2_1" type="ty_through" route="2" depart="37" departspeed="15"/>
    <vehicle id="n2_1" type="ty_through" route="0" depart="46" departspeed="15"/>
    <vehicle id="s2_2" type="ty_through" route="4" depart="49" departspeed="15"/>
    <vehicle id="w2_2" type="ty_through" route="6" depart="53" departspeed="15"/>
    <vehicle id="e2_2" type="ty_through" route="2" depart="60" departspeed="15"/>
    <vehicle id="n2_2" type="ty_through" route="0" depart="66" departspeed="15"/>
    <vehicle id="s1_1" type="ty_left" route="5" depart="74" departspeed="10"/>
    <vehicle id="n1_3" type="ty_left" route="1" depart="85" departspeed="10"/>
    <vehicle id="s2_3" type="ty_through" route="4" depart="110" departspeed="15"/>
    <vehicle id="s2_4" type="ty_through" route="4" depart="128" departspeed="15"/>
    <vehicle id="s2_5" type="ty_through" route="4" depart="129" departspeed="15"/>
    <vehicle id="e1_2" type="ty_left" route="3" depart="141" departspeed="10"/>
    <vehicle id="n2_3" type="ty_through" route="0" depart="146" departspeed="15"/>
    <vehicle id="s1_2" type="ty_left" route="5" depart="146" departspeed="10"/>
    <vehicle id="e2_3" type="ty_through" route="2" depart="148" departspeed="15"/>
    <vehicle id="e2_4" type="ty_through" route="2" depart="149" departspeed="15"/>
    <vehicle id="w1_1" type="ty_left" route="7" depart="173" departspeed="10"/>
    <vehicle id="n2_4" type="ty_through" route="0" depart="176" departspeed="15"/>
    <vehicle id="e2_5" type="ty_through" route="2" depart="207" departspeed="15"/>
    <vehicle id="s2_6" type="ty_through" route="4" depart="217" departspeed="15"/>
    <vehicle id="w1_2" type="ty_left" route="7" depart="225" departspeed="10"/>
    <vehicle id="n1_4" type="ty_left" route="1" depart="229" departspeed="10"/>
    <vehicle id="s2_7" type="ty_through" route="4" depart="234" departspeed="15"/>
    <vehicle id="e2_6" type="ty_through" route="2" depart="245" departspeed="15"/>
    <vehicle id="s2_8" type="ty_through" route="4" depart="245" departspeed="15"/>
    <vehicle id="s2_9" type="ty_through" route="4" depart="247" departspeed="15"/>
    <vehicle id="s2_10" type="ty_through" route="4" depart="256" departspeed="15"/>
    <vehicle id="n2_5" type="ty_through" route="0" depart="264" departspeed="15"/>
    <vehicle id="n2_6" type="ty_through" route="0" depart="265" departspeed="15"/>
    <vehicle id="s2_11" type="ty_through" route="4" depart="265" departspeed="15"/>
    <vehicle id="e2_7" type="ty_through" route="2" depart="269" departspeed="15"/>
    <vehicle id="e1_3" type="ty_left" route="3" depart="277" departspeed="10"/>
    <vehicle id="s2_12" type="ty_through" route="4" depart="291" departspeed="15"/>
    <vehicle id="s2_13" type="ty_through" route="4" depart="303" departspeed="15"/>
    <vehicle id="n1_5" type="ty_left" route="1" depart="314" departspeed="10"/>
    <vehicle id="w1_3" type="ty_left" route="7" depart="317" departspeed="10"/>
    <vehicle id="w2_3" type="ty_through" route="6" depart="320" departspeed="15"/>
    <vehicle id="n2_7" type="ty_through" route="0" depart="321" departspeed="15"/>
    <vehicle id="w2_4" type="ty_through" route="6" depart="323" departspeed="15"/>
    <vehicle id="w1_4" type="ty_left" route="7" depart="341" departspeed="10"/>
    <vehicle id="n1_6" type="ty_left" route="1" depart="343" departspeed="10"/>
    <vehicle id="w2_5" type="ty_through" route="6" depart="344" departspeed="15"/>
    <vehicle id="e2_8" type="ty_through" route="2" depart="353" departspeed="15"/>
    <vehicle id="n1_7" type="ty_left" route="1" depart="365" departspeed="10"/>
    <vehicle id="s1_3" type="ty_left" route="5" depart="373" departspeed="10"/>
    <vehicle id="w1_5" type="ty_left" route="7" depart="400" departspeed="10"/>
    <vehicle id="w2_6" type="ty_through" route="6" depart="401" departspeed="15"/>
    <vehicle id="e2_9" type="ty_through" route="2" depart="414" departspeed="15"/>
    <vehicle id="e2_10" type="ty_through" route="2" depart="416" departspeed="15"/>
    <vehicle id="s1_4" type="ty_left" route="5" depart="425" departspeed="10"/>
    <vehicle id="e1_4" type="ty_left" route="3" depart="439" departspeed="10"/>
    <vehicle id="n2_8" type="ty_through" route="0" depart="464" departspeed="15"/>
    <vehicle id="w2_7" type="ty_through" route="6" depart="467" departspeed="15"/>
    <vehicle id="e2_11" type="ty_through" route="2" depart="475" departspeed="15"/>
    <vehicle id="n1_8" type="ty_left" route="1" depart="480" departspeed="10"/>
    <vehicle id="w2_8" type="ty_through" route="6" depart="483" departspeed="15"/>
    <vehicle id="e2_12" type="ty_through" route="2" depart="494" departspeed="15"/>
    <vehicle id="e2_13" type="ty_through" route="2" depart="504" departspeed="15"/>
    <vehicle id="w1_6" type="ty_left" route="7" depart="508" departspeed="10"/>
    <vehicle id="e1_5" type="ty_left" route="3" depart="512" departspeed="10"/>
    <vehicle id="n2_9" type="ty_through" route="0" depart="519" departspeed="15"/>
    <vehicle id="n2_10" type="ty_through" route="0" depart="526" departspeed="15"/>
    <vehicle id="w2_9" type="ty_through" route="6" depart="537" departspeed="15"/>
    <vehicle id="s1_5" type="ty_left" route="5" depart="543" departspeed="10"/>
    <vehicle id="w2_10" type="ty_through" route="6" depart="544" departspeed="15"/>
    <vehicle id="w1_7" type="ty_left" route="7" depart="544" departspeed="10"/>
    <vehicle id="w2_11" type="ty_through" route="6" depart="545" departspeed="15"/>
    <vehicle id="w2_12" type="ty_through" route="6" depart="556" departspeed="15"/>
    <vehicle id="e2_14" type="ty_through" route="2" depart="562" departspeed="15"/>
    <vehicle id="e2_15" type="ty_through" route="2" depart="575" departspeed="15"/>
    <vehicle id="s2_14" type="ty_through" route="4" depart="580" departspeed="15"/>
    <vehicle id="s2_15" type="ty_through" route="4" depart="588" departspeed="15"/>
    <vehicle id="n2_11" type="ty_through" route="0" depart="590" departspeed="15"/>
    <vehicle id="s2_16" type="ty_through" route="4" depart="591" departspeed="15"/>
    <vehicle id="n2_12" type="ty_through" route="0" depart="592" departspeed="15"/>
    <vehicle id="e2_16" type="ty_through" route="2" depart="617" departspeed="15"/>
    <vehicle id="e2_17" type="ty_through" route="2" depart="626" departspeed="15"/>
    <vehicle id="s2_17" type="ty_through" route="4" depart="626" departspeed="15"/>
    <vehicle id="n1_9" type="ty_left" route="1" depart="627" departspeed="10"/>
    <vehicle id="w2_13" type="ty_through" route="6" depart="628" departspeed="15"/>
    <vehicle id="s1_6" type="ty_left" route="5" depart="637" departspeed="10"/>
    <vehicle id="w2_14" type="ty_through" route="6" depart="640" departspeed="15"/>
    <vehicle id="n1_10" type="ty_left" route="1" depart="653" departspeed="10"/>
    <vehicle id="e1_6" type="ty_left" route="3" depart="655" departspeed="10"/>
    <vehicle id="w2_15" type="ty_through" route="6" depart="669" departspeed="15"/>
    <vehicle id="w2_16" type="ty_through" route="6" depart="674" departspeed="15"/>
    <vehicle id="n2_13" type="ty_through" route="0" depart="678" departspeed="15"/>
    <vehicle id="n1_11" type="ty_left" route="1" depart="687" departspeed="10"/>
    <vehicle id="n2_14" type="ty_through" route="0" depart="700" departspeed="15"/>
    <vehicle id="s2_18" type="ty_through" route="4" depart="700" departspeed="15"/>
    <vehicle id="n2_15" type="ty_through" route="0" depart="703" departspeed="15"/>
    <vehicle id="w2_17" type="ty_through" route="6" depart="714" departspeed="15"/>
    <vehicle id="n2_16" type="ty_through" route="0" depart="716" departspeed="15"/>
    <vehicle id="w1_8" type="ty_left" route="7" depart="734" departspeed="10"/>
    <vehicle id="w1_9" type="ty_left" route="7" depart="745" departspeed="10"/>
    <vehicle id="s2_19" type="ty_through" route="4" depart="781" departspeed="15"/>
    <vehicle id="n2_17" type="ty_through" route="0" depart="788" departspeed="15"/>
    <vehicle id="s2_20" type="ty_through" route="4" depart="794" departspeed="15"/>
    <vehicle id="w2_18" type="ty_through" route="6" depart="800" departspeed="15"/>
    <vehicle id="e2_18" type="ty_through" route="2" depart="816" departspeed="15"/>
    <vehicle id="s2_21" type="ty_through" route="4" depart="829" departspeed="15"/>
    <vehicle id="w1_10" type="ty_left" route="7" depart="841" departspeed="10"/>
    <vehicle id="n2_18" type="ty_through" route="0" depart="844" departspeed="15"/>
    <vehicle id="s2_22" type="ty_through" route="4" depart="844" departspeed="15"/>
    <vehicle id="w2_19" type="ty_through" route="6" depart="847" departspeed="15"/>
    <vehicle id="e2_19" type="ty_through" route="2" depart="855" departspeed="15"/>
    <vehicle id="s2_23" type="ty_through" route="4" depart="864" departspeed="15"/>
    <vehicle id="s2_24" type="ty_through" route="4" depart="867" departspeed="15"/>
    <vehicle id="n2_19" type="ty_through" route="0" depart="888" departspeed="15"/>
    <vehicle id="w2_20" type="ty_through" route="6" depart="889" departspeed="15"/>
    <vehicle id="s1_7" type="ty_left" route="5" depart="896" departspeed="10"/>
    <vehicle id="w2_21" type="ty_through" route="6" depart="897" departspeed="15"/>
    <vehicle id="w1_11" type="ty_left" route="7" depart="901" departspeed="10"/>
    <vehicle id="s1_8" type="ty_left" route="5" depart="904" departspeed="10"/>
    <vehicle id="w2_22" type="ty_through" route="6" depart="905" departspeed="15"/>
    <vehicle id="s1_9" type="ty_left" route="5" depart="912" departspeed="10"/>
    <vehicle id="w2_23" type="ty_through" route="6" depart="919" departspeed="15"/>
    <vehicle id="w1_12" type="ty_left" route="7" depart="923" departspeed="10"/>
    <vehicle id="s2_25" type="ty_through" route="4" depart="927" departspeed="15"/>
    <vehicle id="s2_26" type="ty_through" route="4" depart="931" departspeed="15"/>
    <vehicle id="e1_7" type="ty_left" route="3" depart="944" departspeed="10"/>
    <vehicle id="s1_10" type="ty_left" route="5" depart="948" departspeed="10"/>
    <vehicle id="n2_20" type="ty_through" route="0" depart="950" departspeed="15"/>
    <vehicle id="w1_13" type="ty_left" route="7" depart="956" departspeed="10"/>
    <vehicle id="n2_21" type="ty_through" route="0" depart="964" departspeed="15"/>
    <vehicle id="e1_8" type="ty_left" route="3" depart="968" departspeed="10"/>
    <vehicle id="w2_24" type="ty_through" route="6" depart="980" departspeed="15"/>
    <vehicle id="e2_20" type="ty_through" route="2" depart="982" departspeed="15"/>
    <vehicle id="w2_25" type="ty_through" route="6" depart="986" departspeed="15"/>
    <vehicle id="w1_14" type="ty_left" route="7" depart="993" departspeed="10"/>
    <vehicle id="s1_11" type="ty_left" route="5" depart="997" departspeed="10"/>
    <vehicle id="e2_21" type="ty_through" route="2" depart="1002" departspeed="15"/>
    <vehicle id="s1_12" type="ty_left" route="5" depart="1002" departspeed="10"/>
    <vehicle id="n1_12" type="ty_left" route="1" depart="1017" departspeed="10"/>
    <vehicle id="w2_26" type="ty_through" route="6" depart="1027" departspeed="15"/>
    <vehicle id="n1_13" type="ty_left" route="1" depart="1038" departspeed="10"/>
    <vehicle id="s2_27" type="ty_through" route="4" depart="1046" departspeed="15"/>
    <vehicle id="s1_13" type="ty_left" route="5" depart="1049" departspeed="10"/>
    <vehicle id="w1_15" type="ty_left" route="7" depart="1061" departspeed="10"/>
    <vehicle id="s2_28" type="ty_through" route="4" depart="1068" departspeed="15"/>
    <vehicle id="s2_29" type="ty_through" route="4" depart="1082" departspeed="15"/>
    <vehicle id="w1_16" type="ty_left" route="7" depart="1087" departspeed="10"/>
    <vehicle id="n2_22" type="ty_through" route="0" depart="1097" departspeed="15"/>
    <vehicle id="e2_22" type="ty_through" route="2" depart="1100" departspeed="15"/>
    <vehicle id="s1_14" type="ty_left" route="5" depart="1104" departspeed="10"/>
    <vehicle id="e1_9" type="ty_left" route="3" depart="1109" departspeed="10"/>
    <vehicle id="s2_30" type="ty_through" route="4" depart="1116" departspeed="15"/>
    <vehicle id="w1_17" type="ty_left" route="7" depart="1122" departspeed="10"/>
    <vehicle id="e1_10" type="ty_left" route="3" depart="1134" departspeed="10"/>
    <vehicle id="e2_23" type="ty_through" route="2" depart="1143" departspeed="15"/>
    <vehicle id="e1_11" type="ty_left" route="3" depart="1145" departspeed="10"/>
    <vehicle id="n2_23" type="ty_through" route="0" depart="1148" departspeed="15"/>
    <vehicle id="e1_12" type="ty_left" route="3" depart="1154" departspeed="10"/>
    <vehicle id="e2_24" type="ty_through" route="2" depart="1156" departspeed="15"/>
    <vehicle id="w2_27" type="ty_through" route="6" depart="1165" departspeed="15"/>
    <vehicle id="e1_13" type="ty_left" route="3" depart="1166" departspeed="10"/>
    <vehicle id="w2_28" type="ty_through" route="6" depart="1176" departspeed="15"/>
    <vehicle id="e2_25" type="ty_through" route="2" depart="1184" departspeed="15"/>
    <vehicle id="w1_18" type="ty_left" route="7" depart="1213" departspeed="10"/>
    <vehicle id="e2_26" type="ty_through" route="2" depart="1222" departspeed="15"/>
    <vehicle id="e1_14" type="ty_left" route="3" depart="1225" departspeed="10"/>
    <vehicle id="e2_27" type="ty_through" route="2" depart="1226" departspeed="15"/>
    <vehicle id="s2_31" type="ty_through" route="4" depart="1231" departspeed="15"/>
    <vehicle id="w2_29" type="ty_through" route="6" depart="1256" departspeed="15"/>
    <vehicle id="e1_15" type="ty_left" route="3" depart="1298" departspeed="10"/>
    <vehicle id="w1_19" type="ty_left" route="7" depart="1303" departspeed="10"/>
    <vehicle id="s1_15" type="ty_left" route="5" depart="1305" departspeed="10"/>
    <vehicle id="e2_28" type="ty_through" route="2" depart="1314" departspeed="15"/>
    <vehicle id="n2_24" type="ty_through" route="0" depart="1317" departspeed="15"/>
    <vehicle id="e2_29" type="ty_through" route="2" depart="1321" departspeed="15"/>
    <vehicle id="s2_32" type="ty_through" route="4" depart="1327" departspeed="15"/>
    <vehicle id="n2_25" type="ty_through" route="0" depart="1334" departspeed="15"/>
    <vehicle id="w1_20" type="ty_left" route="7" depart="1345" departspeed="10"/>
    <vehicle id="s2_33" type="ty_through" route="4" depart="1346" departspeed="15"/>
    <vehicle id="e1_16" type="ty_left" route="3" depart="1354" departspeed="10"/>
    <vehicle id="s2_34" type="ty_through" route="4" depart="1364" departspeed="15"/>
    <vehicle id="w2_30" type="ty_through" route="6" depart="1365" departspeed="15"/>
    <vehicle id="s2_35" type="ty_through" route="4" depart="1370" departspeed="15"/>
    <vehicle id="s1_16" type="ty_left" route="5" depart="1378" departspeed="10"/>
    <vehicle id="w2_31" type="ty_through" route="6" depart="1392" departspeed="15"/>
    <vehicle id="w2_32" type="ty_through" route="6" depart="1393" departspeed="15"/>
    <vehicle id="s2_36" type="ty_through" route="4" depart="1398" departspeed="15"/>
    <vehicle id="s1_17" type="ty_left" route="5" depart="1409" departspeed="10"/>
    <vehicle id="s2_37" type="ty_through" route="4" depart="1421" departspeed="15"/>
    <vehicle id="n1_14" type="ty_left" route="1" depart="1430" departspeed="10"/>
    <vehicle id="e2_30" type="ty_through" route="2" depart="1448" departspeed="15"/>
    <vehicle id="s2_38" type="ty_through" route="4" depart="1449" departspeed="15"/>
    <vehicle id="w1_21" type="ty_left" route="7" depart="1453" departspeed="10"/>
    <vehicle id="e2_31" type="ty_through" route="2" depart="1454" departspeed="15"/>
    <vehicle id="w2_33" type="ty_through" route="6" depart="1462" departspeed="15"/>
    <vehicle id="n2_26" type="ty_through" route="0" depart="1483" departspeed="15"/>
    <vehicle id="e2_32" type="ty_through" route="2" depart="1487" departspeed="15"/>
    <vehicle id="n2_27" type="ty_through" route="0" depart="1491" departspeed="15"/>
    <vehicle id="n2_28" type="ty_through" route="0" depart="1502" departspeed="15"/>
    <vehicle id="w1_22" type="ty_left" route="7" depart="1512" departspeed="10"/>
    <vehicle id="e2_33" type="ty_through" route="2" depart="1513" departspeed="15"/>
    <vehicle id="w1_23" type="ty_left" route="7" depart="1522" departspeed="10"/>
    <vehicle id="w1_24" type="ty_left" route="7" depart="1528" departspeed="10"/>
    <vehicle id="s2_39" type="ty_through" route="4" depart="1538" departspeed="15"/>
    <vehicle id="s2_40" type="ty_through" route="4" depart="1543" departspeed="15"/>
    <vehicle id="w1_25" type="ty_left" route="7" depart="1543" departspeed="10"/>
    <vehicle id="s1_18" type="ty_left" route="5" depart="1570" departspeed="10"/>
    <vehicle id="e2_34" type="ty_through" route="2" depart="1579" departspeed="15"/>
    <vehicle id="w2_34" type="ty_through" route="6" depart="1582" departspeed="15"/>
    <vehicle id="e1_17" type="ty_left" route="3" depart="1586" departspeed="10"/>
    <vehicle id="n2_29" type="ty_through" route="0" depart="1589" departspeed="15"/>
    <vehicle id="e2_35" type="ty_through" route="2" depart="1591" departspeed="15"/>
    <vehicle id="n1_15" type="ty_left" route="1" depart="1595" departspeed="10"/>
    <vehicle id="w2_35" type="ty_through" route="6" depart="1600" departspeed="15"/>
    <vehicle id="w2_36" type="ty_through" route="6" depart="1604" departspeed="15"/>
    <vehicle id="s2_41" type="ty_through" route="4" depart="1609" departspeed="15"/>
    <vehicle id="n1_16" type="ty_left" route="1" depart="1614" departspeed="10"/>
    <vehicle id="s1_19" type="ty_left" route="5" depart="1625" departspeed="10"/>
    <vehicle id="e1_18" type="ty_left" route="3" depart="1633" departspeed="10"/>
    <vehicle id="n2_30" type="ty_through" route="0" depart="1634" departspeed="15"/>
    <vehicle id="s2_42" type="ty_through" route="4" depart="1634" departspeed="15"/>
    <vehicle id="w2_37" type="ty_through" route="6" depart="1638" departspeed="15"/>
    <vehicle id="s1_20" type="ty_left" route="5" depart="1651" departspeed="10"/>
    <vehicle id="w2_38" type="ty_through" route="6" depart="1653" departspeed="15"/>
    <vehicle id="e2_36" type="ty_through" route="2" depart="1660" departspeed="15"/>
    <vehicle id="w2_39" type="ty_through" route="6" depart="1663" departspeed="15"/>
    <vehicle id="e2_37" type="ty_through" route="2" depart="1666" departspeed="15"/>
    <vehicle id="w2_40" type="ty_through" route="6" depart="1670" departspeed="15"/>
    <vehicle id="e2_38" type="ty_through" route="2" depart="1671" departspeed="15"/>
    <vehicle id="w2_41" type="ty_through" route="6" depart="1687" departspeed="15"/>
    <vehicle id="s2_43" type="ty_through" route="4" depart="1691" departspeed="15"/>
    <vehicle id="s2_44" type="ty_through" route="4" depart="1700" departspeed="15"/>
    <vehicle id="s1_21" type="ty_left" route="5" depart="1708" departspeed="10"/>
    <vehicle id="s2_45" type="ty_through" route="4" depart="1709" departspeed="15"/>
    <vehicle id="e1_19" type="ty_left" route="3" depart="1711" departspeed="10"/>
    <vehicle id="w2_42" type="ty_through" route="6" depart="1715" departspeed="15"/>
    <vehicle id="s2_46" type="ty_through" route="4" depart="1721" departspeed="15"/>
    <vehicle id="s2_47" type="ty_through" route="4" depart="1726" departspeed="15"/>
    <vehicle id="w1_26" type="ty_left" route="7" depart="1736" departspeed="10"/>
    <vehicle id="w1_27" type="ty_left" route="7" depart="1737" departspeed="10"/>
    <vehicle id="e1_20" type="ty_left" route="3" depart="1749" departspeed="10"/>
    <vehicle id="n2_31" type="ty_through" route="0" depart="1752" departspeed="15"/>
    <vehicle id="n2_32" type="ty_through" route="0" depart="1764" departspeed="15"/>
    <vehicle id="s2_48" type="ty_through" route="4" depart="1771" departspeed="15"/>
    <vehicle id="w2_43" type="ty_through" route="6" depart="1776" departspeed="15"/>
    <vehicle id="s2_49" type="ty_through" route="4" depart="1783" departspeed="15"/>
    <vehicle id="s2_50" type="ty_through" route="4" depart="1784" departspeed="15"/>
    <vehicle id="e1_21" type="ty_left" route="3" depart="1799" departspeed="10"/>
    <vehicle id="w2_44" type="ty_through" route="6" depart="1800" departspeed="15"/>
    <vehicle id="e2_39" type="ty_through" route="2" depart="1809" departspeed="15"/>
    <vehicle id="n2_33" type="ty_through" route="0" depart="1824" departspeed="15"/>
    <vehicle id="w2_45" type="ty_through" route="6" depart="1824" departspeed="15"/>
    <vehicle id="s1_22" type="ty_left" route="5" depart="1829" departspeed="10"/>
    <vehicle id="w2_46" type="ty_through" route="6" depart="1835" departspeed="15"/>
    <vehicle id="n2_34" type="ty_through" route="0" depart="1842" departspeed="15"/>
    <vehicle id="w1_28" type="ty_left" route="7" depart="1850" departspeed="10"/>
    <vehicle id="n1_17" type="ty_left" route="1" depart="1853" departspeed="10"/>
    <vehicle id="w1_29" type="ty_left" route="7" depart="1876" departspeed="10"/>
    <vehicle id="s1_23" type="ty_left" route="5" depart="1882" departspeed="10"/>
    <vehicle id="w2_47" type="ty_through" route="6" depart="1887" departspeed="15"/>
    <vehicle id="e2_40" type="ty_through" route="2" depart="1902" departspeed="15"/>
    <vehicle id="s2_51" type="ty_through" route="4" depart="1904" departspeed="15"/>
    <vehicle id="n1_18" type="ty_left" route="1" depart="1916" departspeed="10"/>
    <vehicle id="s1_24" type="ty_left" route="5" depart="1940" departspeed="10"/>
    <vehicle id="w1_30" type="ty_left" route="7" depart="1943" departspeed="10"/>
    <vehicle id="s2_52" type="ty_through" route="4" depart="1946" departspeed="15"/>
    <vehicle id="s1_25" type="ty_left" route="5" depart="1946" departspeed="10"/>
    <vehicle id="s1_26" type="ty_left" route="5" depart="1968" departspeed="10"/>
    <vehicle id="w1_31" type="ty_left" route="7" depart="1975" departspeed="10"/>
    <vehicle id="s2_53" type="ty_through" route="4" depart="1994" departspeed="15"/>
    <vehicle id="w2_48" type="ty_through" route="6" depart="1998" departspeed="15"/>
    <vehicle id="s1_27" type="ty_left" route="5" depart="1999" departspeed="10"/>
    <vehicle id="w2_49" type="ty_through" route="6" depart="2005" departspeed="15"/>
    <vehicle id="w1_32" type="ty_left" route="7" depart="2012" departspeed="10"/>
    <vehicle id="s1_28" type="ty_left" route="5" depart="2021" departspeed="10"/>
    <vehicle id="s2_54" type="ty_through" route="4" depart="2050" departspeed="15"/>
    <vehicle id="w1_33" type="ty_left" route="7" depart="2063" departspeed="10"/>
    <vehicle id="w2_50" type="ty_through" route="6" depart="2067" departspeed="15"/>
    <vehicle id="w2_51" type="ty_through" route="6" depart="2075" departspeed="15"/>
    <vehicle id="w2_52" type="ty_through" route="6" depart="2077" departspeed="15"/>
    <vehicle id="n2_35" type="ty_through" route="0" depart="2081" departspeed="15"/>
    <vehicle id="w2_53" type="ty_through" route="6" depart="2082" departspeed="15"/>
    <vehicle id="s2_55" type="ty_through" route="4" depart="2083" departspeed="15"/>
    <vehicle id="e2_41" type="ty_through" route="2" depart="2091" departspeed="15"/>
    <vehicle id="n1_19" type="ty_left" route="1" depart="2091" departspeed="10"/>
    <vehicle id="s2_56" type="ty_through" route="4" depart="2098" departspeed="15"/>
    <vehicle id="e1_22" type="ty_left" route="3" depart="2100" departspeed="10"/>
    <vehicle id="s2_57" type="ty_through" route="4" depart="2106" departspeed="15"/>
    <vehicle id="n2_36" type="ty_through" route="0" depart="2122" departspeed="15"/>
    <vehicle id="s2_58" type="ty_through" route="4" depart="2127" departspeed="15"/>
    <vehicle id="n2_37" type="ty_through" route="0" depart="2128" departspeed="15"/>
    <vehicle id="w2_54" type="ty_through" route="6" depart="2128" departspeed="15"/>
    <vehicle id="e2_42" type="ty_through" route="2" depart="2135" departspeed="15"/>
    <vehicle id="w2_55" type="ty_through" route="6" depart="2139" departspeed="15"/>
    <vehicle id="n2_38" type="ty_through" route="0" depart="2145" departspeed="15"/>
    <vehicle id="e1_23" type="ty_left" route="3" depart="2155" departspeed="10"/>
    <vehicle id="n2_39" type="ty_through" route="0" depart="2156" departspeed="15"/>
    <vehicle id="s1_29" type="ty_left" route="5" depart="2167" departspeed="10"/>
    <vehicle id="e1_24" type="ty_left" route="3" depart="2199" departspeed="10"/>
    <vehicle id="e2_43" type="ty_through" route="2" depart="2212" departspeed="15"/>
    <vehicle id="e2_44" type="ty_through" route="2" depart="2217" departspeed="15"/>
    <vehicle id="e2_45" type="ty_through" route="2" depart="2226" departspeed="15"/>
    <vehicle id="e2_46" type="ty_through" route="2" depart="2239" departspeed="15"/>
    <vehicle id="w2_56" type="ty_through" route="6" depart="2248" departspeed="15"/>
    <vehicle id="s1_30" type="ty_left" route="5" depart="2256" departspeed="10"/>
    <vehicle id="w2_57" type="ty_through" route="6" depart="2272" departspeed="15"/>
    <vehicle id="n2_40" type="ty_through" route="0" depart="2274" departspeed="15"/>
    <vehicle id="w2_58" type="ty_through" route="6" depart="2287" departspeed="15"/>
    <vehicle id="e1_25" type="ty_left" route="3" depart="2288" departspeed="10"/>
    <vehicle id="s2_59" type="ty_through" route="4" depart="2296" departspeed="15"/>
    <vehicle id="w2_59" type="ty_through" route="6" depart="2296" departspeed="15"/>
    <vehicle id="s2_60" type="ty_through" route="4" depart="2297" departspeed="15"/>
    <vehicle id="n2_41" type="ty_through" route="0" depart="2307" departspeed="15"/>
    <vehicle id="e1_26" type="ty_left" route="3" depart="2312" departspeed="10"/>
    <vehicle id="s2_61" type="ty_through" route="4" depart="2313" departspeed="15"/>
    <vehicle id="e2_47" type="ty_through" route="2" depart="2321" departspeed="15"/>
    <vehicle id="e2_48" type="ty_through" route="2" depart="2325" departspeed="15"/>
    <vehicle id="e2_49" type="ty_through" route="2" depart="2327" departspeed="15"/>
    <vehicle id="n1_20" type="ty_left" route="1" depart="2334" departspeed="10"/>
    <vehicle id="w2_60" type="ty_through" route="6" depart="2346" departspeed="15"/>
    <vehicle id="s2_62" type="ty_through" route="4" depart="2366" departspeed="15"/>
    <vehicle id="w1_34" type="ty_left" route="7" depart="2366" departspeed="10"/>
    <vehicle id="n2_42" type="ty_through" route="0" depart="2376" departspeed="15"/>
    <vehicle id="n1_21" type="ty_left" route="1" depart="2379" departspeed="10"/>
    <vehicle id="e1_27" type="ty_left" route="3" depart="2382" departspeed="10"/>
    <vehicle id="e2_50" type="ty_through" route="2" depart="2385" departspeed="15"/>
    <vehicle id="s1_31" type="ty_left" route="5" depart="2391" departspeed="10"/>
    <vehicle id="s2_63" type="ty_through" route="4" depart="2400" departspeed="15"/>
    <vehicle id="e2_51" type="ty_through" route="2" depart="2405" departspeed="15"/>
    <vehicle id="e2_52" type="ty_through" route="2" depart="2410" departspeed="15"/>
    <vehicle id="w2_61" type="ty_through" route="6" depart="2419" departspeed="15"/>
    <vehicle id="s2_64" type="ty_through" route="4" depart="2420" departspeed="15"/>
    <vehicle id="n1_22" type="ty_left" route="1" depart="2420" departspeed="10"/>
    <vehicle id="n2_43" type="ty_through" route="0" depart="2421" departspeed="15"/>
    <vehicle id="n2_44" type="ty_through" route="0" depart="2422" departspeed="15"/>
    <vehicle id="n2_45" type="ty_through" route="0" depart="2423" departspeed="15"/>
    <vehicle id="n2_46" type="ty_through" route="0" depart="2430" departspeed="15"/>
    <vehicle id="n2_47" type="ty_through" route="0" depart="2436" departspeed="15"/>
    <vehicle id="n2_48" type="ty_through" route="0" depart="2439" departspeed="15"/>
    <vehicle id="s2_65" type="ty_through" route="4" depart="2444" departspeed="15"/>
    <vehicle id="e2_53" type="ty_through" route="2" depart="2455" departspeed="15"/>
    <vehicle id="s2_66" type="ty_through" route="4" depart="2457" departspeed="15"/>
    <vehicle id="n1_23" type="ty_left" route="1" depart="2459" departspeed="10"/>
    <vehicle id="s1_32" type="ty_left" route="5" depart="2465" departspeed="10"/>
    <vehicle id="w2_62" type="ty_through" route="6" depart="2467" departspeed="15"/>
    <vehicle id="n2_49" type="ty_through" route="0" depart="2471" departspeed="15"/>
    <vehicle id="e2_54" type="ty_through" route="2" depart="2472" departspeed="15"/>
    <vehicle id="w1_35" type="ty_left" route="7" depart="2476" departspeed="10"/>
    <vehicle id="w2_63" type="ty_through" route="6" depart="2479" departspeed="15"/>
    <vehicle id="w2_64" type="ty_through" route="6" depart="2493" departspeed="15"/>
    <vehicle id="e2_55" type="ty_through" route="2" depart="2499" departspeed="15"/>
    <vehicle id="e2_56" type="ty_through" route="2" depart="2511" departspeed="15"/>