<routes>
        <vType id="ty_through" accel="2" decel="4.5" sigma="0.5" length="5" minGap="2.5" maxSpeed="20" guiShape="passenger" lcStrategic="1000000000" lcCooperative="0.0"  lcAssertive="100"/>
        <vType id="ty_left" accel="2" decel="4.5" sigma="0.5" length="5" minGap="3" maxSpeed="20" guiShape="passenger" lcStrategic="1000000000000" lcCooperative="0.0" lcAssertive="100" />
        <route id="0012" edges="a1i a4o"/>
        <route id="0022" edges="a2i a1o"/>
        <route id="0032" edges="a3i a2o"/>
        <route id="0042" edges="a4i a3o 0001 d1i d3o"/>
        <!--above are 001 intersection's connections  LEFT TURN  routes-->
        <route id="0011" edges="a1i a3o 0001 d1i d4o"/>
        <route id="0021" edges="a2i a4o"/>
        <route id="0031" edges="a3i a1o"/>
        <route id="0041" edges="a4i a2o 0010 b4i b2o"/>
        <!--above are 00 intersection's connections STRAIGHT TURN routes-->
        <route id="0010" edges="a1i a2o 0010  b4i b3o 1011 c1i c3o"/>
        <route id="0020" edges="a2i a3o"/>
        <route id="0030" edges="a3i a4o"/>
        <route id="0040" edges="a4i a1o"/>
        <!--above are 00 intersection's connections RIGHT TURN routes-->
        <!--*********************ONE 00 INTERSECTION**************************   -->

        <route id="1012" edges="b1i b4o 1000 a2i a4o"/> 
        <route id="1022" edges="b2i b1o"/>
        <route id="1032" edges="b3i b2o"/>
        <route id="1042" edges="b4i b3o"/>
        <!--above are 001 intersection's connections  LEFT TURN  routes-->
        <route id="1011" edges="b1i b3o 1011 c1i c4o 1101 d2i d4o"/>
        <route id="1021" edges="b2i b4o 1000 a2i a1o"/>
        <route id="1031" edges="b3i b1o"/>
        <route id="1041" edges="b4i b2o"/>
        <!--above are 00 intersection's connections STRAIGHT TURN routes-->
        <route id="1010" edges="b1i b2o"/>
        <route id="1020" edges="b2i b3o 1011 c1i c3o"/>
        <route id="1030" edges="b3i b4o"/>
        <route id="1040" edges="b4i b1o"/>
        <!--above are 00 intersection's connections RIGHT TURN routes-->
        <!--*********************ONE 10 INTERSECTION**************************   -->

        <route id="1112" edges="c1i c4o"/>
        <route id="1122" edges="c2i c1o 1110 b3i b1o"/>
        <route id="1132" edges="c3i c2o"/>
        <route id="1142" edges="c4i c3o"/>
        <!--above are 001 intersection's connections  LEFT TURN  routes-->
        <route id="1111" edges="c1i c3o"/>
        <route id="1121" edges="c2i c4o 1101 d2i d4o"/>
        <route id="1131" edges="c3i c1o 1110 b3i b4o 1000 a2i a3o 0001 d1i d3o"/>
        <route id="1141" edges="c4i c2o"/>
        <!--above are 00 intersection's connections STRAIGHT TURN routes-->
        <route id="1110" edges="c1i c2o"/>
        <route id="1120" edges="c2i c3o"/>
        <route id="1130" edges="c3i c4o 1101 d2i d3o"/>
        <route id="1140" edges="c4i c1o"/>
        <!--above are 00 intersection's connections RIGHT TURN routes-->
        <!--*********************ONE 11 INTERSECTION**************************   -->

        <route id="0112" edges="d1i d4o"/>
        <route id="0122" edges="d2i d1o"/>
        <route id="0132" edges="d3i d2o 0111 c4i c3o"/>
        <route id="0142" edges="d4i d3o"/>
        <!--above are 001 intersection's connections  LEFT TURN  routes-->
        <route id="0111" edges="d1i d3o"/>
        <route id="0121" edges="d2i d4o"/>
        <route id="0131" edges="d3i d1o 0100 a3i a1o"/>
        <route id="0141" edges="d4i d2o 0111 c4i c2o"/>
        <!--above are 00 intersection's connections STRAIGHT TURN routes-->
        <route id="0110" edges="d1i d2o"/>
        <route id="0120" edges="d2i d3o"/>
        <route id="0130" edges="d3i d4o"/>
        <route id="0140" edges="d4i d1o 0100 a3i a2o"/>
        <!--above are 00 intersection's connections RIGHT TURN routes-->
        <!--*********************ONE 01 INTERSECTION**************************-->
    <vehicle id="d31_1" type="ty_through" route="0131" depart="0" departspeed="15"/>
    <vehicle id="d40_1" type="ty_through" route="0140" depart="0" departspeed="15"/>
    <vehicle id="b21_1" type="ty_through" route="1021" depart="1" departspeed="15"/>
    <vehicle id="a10_1" type="ty_through" route="0010" depart="2" departspeed="15"/>
    <vehicle id="b22_1" type="ty_through" route="1022" depart="2" departspeed="15"/>
    <vehicle id="d30_1" type="ty_through" route="0130" depart="2" departspeed="15"/>
    <vehicle id="a12_1" type="ty_through" route="0012" depart="3" departspeed="15"/>
    <vehicle id="b20_1" type="ty_through" route="1020" depart="3" departspeed="15"/>
    <vehicle id="c20_1" type="ty_through" route="1120" depart="3" departspeed="15"/>
    <vehicle id="d40_2" type="ty_through" route="0140" depart="3" departspeed="15"/>
    <vehicle id="a11_1" type="ty_through" route="0011" depart="4" departspeed="15"/>
    <vehicle id="a41_1" type="ty_through" route="0041" depart="4" departspeed="15"/>
    <vehicle id="b12_1" type="ty_through" route="1012" depart="4" departspeed="15"/>
    <vehicle id="b21_2" type="ty_through" route="1021" depart="4" departspeed="15"/>
    <vehicle id="d42_1" type="ty_through" route="0142" depart="4" departspeed="15"/>
    <vehicle id="a12_2" type="ty_through" route="0012" depart="5" departspeed="15"/>
    <vehicle id="a42_1" type="ty_through" route="0042" depart="5" departspeed="15"/>
    <vehicle id="c30_1" type="ty_through" route="1130" depart="5" departspeed="15"/>
    <vehicle id="a10_2" type="ty_through" route="0010" depart="6" departspeed="15"/>
    <vehicle id="c21_1" type="ty_through" route="1121" depart="7" departspeed="15"/>
    <vehicle id="d31_2" type="ty_through" route="0131" depart="7" departspeed="15"/>
    <vehicle id="d40_3" type="ty_through" route="0140" depart="7" departspeed="15"/>
    <vehicle id="c30_2" type="ty_through" route="1130" depart="8" departspeed="15"/>
    <vehicle id="c21_2" type="ty_through" route="1121" depart="8" departspeed="15"/>
    <vehicle id="c20_2" type="ty_through" route="1120" depart="8" departspeed="15"/>
    <vehicle id="d30_2" type="ty_through" route="0130" depart="8" departspeed="15"/>
    <vehicle id="b20_2" type="ty_through" route="1020" depart="9" departspeed="15"/>
    <vehicle id="a12_3" type="ty_through" route="0012" depart="10" departspeed="15"/>
    <vehicle id="d32_1" type="ty_through" route="0132" depart="10" departspeed="15"/>
    <vehicle id="a11_2" type="ty_through" route="0011" depart="11" departspeed="15"/>
    <vehicle id="c20_3" type="ty_through" route="1120" depart="11" departspeed="15"/>
    <vehicle id="a10_3" type="ty_through" route="0010" depart="12" departspeed="15"/>
    <vehicle id="c30_3" type="ty_through" route="1130" depart="12" departspeed="15"/>
    <vehicle id="c21_3" type="ty_through" route="1121" depart="12" departspeed="15"/>
    <vehicle id="d42_2" type="ty_through" route="0142" depart="12" departspeed="15"/>
    <vehicle id="d41_1" type="ty_through" route="0141" depart="12" departspeed="15"/>
    <vehicle id="c22_1" type="ty_through" route="1122" depart="14" departspeed="15"/>
    <vehicle id="c20_4" type="ty_through" route="1120" depart="14" departspeed="15"/>
    <vehicle id="d40_4" type="ty_through" route="0140" depart="14" departspeed="15"/>
    <vehicle id="d42_3" type="ty_through" route="0142" depart="15" departspeed="15"/>
    <vehicle id="a42_2" type="ty_through" route="0042" depart="16" departspeed="15"/>
    <vehicle id="c31_1" type="ty_through" route="1131" depart="16" departspeed="15"/>
    <vehicle id="d30_3" type="ty_through" route="0130" depart="16" departspeed="15"/>
    <vehicle id="a12_4" type="ty_through" route="0012" depart="17" departspeed="15"/>
    <vehicle id="a10_4" type="ty_through" route="0010" depart="17" departspeed="15"/>
    <vehicle id="b22_2" type="ty_through" route="1022" depart="17" departspeed="15"/>
    <vehicle id="c21_4" type="ty_through" route="1121" depart="17" departspeed="15"/>
    <vehicle id="d30_4" type="ty_through" route="0130" depart="17" departspeed="15"/>
    <vehicle id="d41_2" type="ty_through" route="0141" depart="17" departspeed="15"/>
    <vehicle id="a11_3" type="ty_through" route="0011" depart="19" departspeed="15"/>
    <vehicle id="a41_2" type="ty_through" route="0041" depart="19" departspeed="15"/>
    <vehicle id="c30_4" type="ty_through" route="1130" depart="19" departspeed="15"/>
    <vehicle id="d32_2" type="ty_through" route="0132" depart="20" departspeed="15"/>
    <vehicle id="b12_2" type="ty_through" route="1012" depart="21" departspeed="15"/>
    <vehicle id="b22_3" type="ty_through" route="1022" depart="21" departspeed="15"/>
    <vehicle id="d30_5" type="ty_through" route="0130" depart="21" departspeed="15"/>
    <vehicle id="c20_5" type="ty_through" route="1120" depart="22" departspeed="15"/>
    <vehicle id="b22_4" type="ty_through" route="1022" depart="23" departspeed="15"/>
    <vehicle id="c32_1" type="ty_through" route="1132" depart="23" departspeed="15"/>
    <vehicle id="a40_1" type="ty_through" route="0040" depart="24" departspeed="15"/>
    <vehicle id="b10_1" type="ty_through" route="1010" depart="25" departspeed="15"/>
    <vehicle id="c21_5" type="ty_through" route="1121" depart="25" departspeed="15"/>
    <vehicle id="a42_3" type="ty_through" route="0042" depart="26" departspeed="15"/>
    <vehicle id="c32_2" type="ty_through" route="1132" depart="26" departspeed="15"/>
    <vehicle id="d30_6" type="ty_through" route="0130" depart="26" departspeed="15"/>
    <vehicle id="c30_5" type="ty_through" route="1130" depart="27" departspeed="15"/>
    <vehicle id="c20_6" type="ty_through" route="1120" depart="27" departspeed="15"/>
    <vehicle id="d30_7" type="ty_through" route="0130" depart="27" departspeed="15"/>
    <vehicle id="a41_3" type="ty_through" route="0041" depart="28" departspeed="15"/>
    <vehicle id="d32_3" type="ty_through" route="0132" depart="28" departspeed="15"/>
    <vehicle id="a41_4" type="ty_through" route="0041" depart="29" departspeed="15"/>
    <vehicle id="b22_5" type="ty_through" route="1022" depart="29" departspeed="15"/>
    <vehicle id="c22_2" type="ty_through" route="1122" depart="29" departspeed="15"/>
    <vehicle id="b22_6" type="ty_through" route="1022" depart="30" departspeed="15"/>
    <vehicle id="a41_5" type="ty_through" route="0041" depart="31" departspeed="15"/>
    <vehicle id="c32_3" type="ty_through" route="1132" depart="32" departspeed="15"/>
    <vehicle id="b22_7" type="ty_through" route="1022" depart="33" departspeed="15"/>
    <vehicle id="d31_3" type="ty_through" route="0131" depart="33" departspeed="15"/>
    <vehicle id="d30_8" type="ty_through" route="0130" depart="33" departspeed="15"/>
    <vehicle id="a12_5" type="ty_through" route="0012" depart="34" departspeed="15"/>
    <vehicle id="a40_2" type="ty_through" route="0040" depart="34" departspeed="15"/>
    <vehicle id="c22_3" type="ty_through" route="1122" depart="34" departspeed="15"/>
    <vehicle id="d41_3" type="ty_through" route="0141" depart="34" departspeed="15"/>
    <vehicle id="b10_2" type="ty_through" route="1010" depart="35" departspeed="15"/>
    <vehicle id="b22_8" type="ty_through" route="1022" depart="35" departspeed="15"/>
    <vehicle id="d30_9" type="ty_through" route="0130" depart="35" departspeed="15"/>
    <vehicle id="d40_5" type="ty_through" route="0140" depart="35" departspeed="15"/>
    <vehicle id="d30_10" type="ty_through" route="0130" depart="36" departspeed="15"/>
    <vehicle id="a12_6" type="ty_through" route="0012" depart="37" departspeed="15"/>
    <vehicle id="d30_11" type="ty_through" route="0130" depart="37" departspeed="15"/>
    <vehicle id="a11_4" type="ty_through" route="0011" depart="38" departspeed="15"/>
    <vehicle id="a40_3" type="ty_through" route="0040" depart="38" departspeed="15"/>
    <vehicle id="b21_3" type="ty_through" route="1021" depart="38" departspeed="15"/>
    <vehicle id="c22_4" type="ty_through" route="1122" depart="38" departspeed="15"/>
    <vehicle id="d32_4" type="ty_through" route="0132" depart="38" departspeed="15"/>
    <vehicle id="a11_5" type="ty_through" route="0011" depart="39" departspeed="15"/>
    <vehicle id="a42_4" type="ty_through" route="0042" depart="39" departspeed="15"/>
    <vehicle id="b11_1" type="ty_through" route="1011" depart="39" departspeed="15"/>
    <vehicle id="b22_9" type="ty_through" route="1022" depart="39" departspeed="15"/>
    <vehicle id="d30_12" type="ty_through" route="0130" depart="39" departspeed="15"/>
    <vehicle id="b12_3" type="ty_through" route="1012" depart="40" departspeed="15"/>
    <vehicle id="d41_4" type="ty_through" route="0141" depart="40" departspeed="15"/>
    <vehicle id="a12_7" type="ty_through" route="0012" depart="41" departspeed="15"/>
    <vehicle id="a41_6" type="ty_through" route="0041" depart="41" departspeed="15"/>
    <vehicle id="b21_4" type="ty_through" route="1021" depart="41" departspeed="15"/>
    <vehicle id="d32_5" type="ty_through" route="0132" depart="41" departspeed="15"/>
    <vehicle id="d31_4" type="ty_through" route="0131" depart="41" departspeed="15"/>
    <vehicle id="d42_4" type="ty_through" route="0142" depart="41" departspeed="15"/>
    <vehicle id="d31_5" type="ty_through" route="0131" depart="42" departspeed="15"/>
    <vehicle id="a12_8" type="ty_through" route="0012" depart="43" departspeed="15"/>
    <vehicle id="b10_3" type="ty_through" route="1010" depart="43" departspeed="15"/>
    <vehicle id="c20_7" type="ty_through" route="1120" depart="43" departspeed="15"/>
    <vehicle id="a40_4" type="ty_through" route="0040" depart="44" departspeed="15"/>
    <vehicle id="c32_4" type="ty_through" route="1132" depart="44" departspeed="15"/>
    <vehicle id="b12_4" type="ty_through" route="1012" depart="45" departspeed="15"/>
    <vehicle id="d42_5" type="ty_through" route="0142" depart="45" departspeed="15"/>
    <vehicle id="a12_9" type="ty_through" route="0012" depart="46" departspeed="15"/>
    <vehicle id="b21_5" type="ty_through" route="1021" depart="46" departspeed="15"/>
    <vehicle id="b10_4" type="ty_through" route="1010" depart="47" departspeed="15"/>
    <vehicle id="b21_6" type="ty_through" route="1021" depart="47" departspeed="15"/>
    <vehicle id="d42_6" type="ty_through" route="0142" depart="48" departspeed="15"/>
    <vehicle id="b20_3" type="ty_through" route="1020" depart="50" departspeed="15"/>
    <vehicle id="b12_5" type="ty_through" route="1012" depart="51" departspeed="15"/>
    <vehicle id="b21_7" type="ty_through" route="1021" depart="51" departspeed="15"/>
    <vehicle id="c22_5" type="ty_through" route="1122" depart="51" departspeed="15"/>
    <vehicle id="d30_13" type="ty_through" route="0130" depart="51" departspeed="15"/>
    <vehicle id="a41_7" type="ty_through" route="0041" depart="52" departspeed="15"/>
    <vehicle id="b21_8" type="ty_through" route="1021" depart="52" departspeed="15"/>
    <vehicle id="d42_7" type="ty_through" route="0142" depart="52" departspeed="15"/>
    <vehicle id="a10_5" type="ty_through" route="0010" depart="53" departspeed="15"/>
    <vehicle id="a41_8" type="ty_through" route="0041" depart="53" departspeed="15"/>
    <vehicle id="b21_9" type="ty_through" route="1021" depart="54" departspeed="15"/>
    <vehicle id="d30_14" type="ty_through" route="0130" depart="54" departspeed="15"/>
    <vehicle id="a41_9" type="ty_through" route="0041" depart="55" departspeed="15"/>
    <vehicle id="d32_6" type="ty_through" route="0132" depart="56" departspeed="15"/>
    <vehicle id="c31_2" type="ty_through" route="1131" depart="57" departspeed="15"/>
    <vehicle id="c30_6" type="ty_through" route="1130" depart="57" departspeed="15"/>
    <vehicle id="b12_6" type="ty_through" route="1012" depart="58" departspeed="15"/>
    <vehicle id="c30_7" type="ty_through" route="1130" depart="58" departspeed="15"/>
    <vehicle id="c22_6" type="ty_through" route="1122" depart="58" departspeed="15"/>
    <vehicle id="c21_6" type="ty_through" route="1121" depart="58" departspeed="15"/>
    <vehicle id="d42_8" type="ty_through" route="0142" depart="58" departspeed="15"/>
    <vehicle id="a10_6" type="ty_through" route="0010" depart="60" departspeed="15"/>
    <vehicle id="b11_2" type="ty_through" route="1011" depart="60" departspeed="15"/>
    <vehicle id="a11_6" type="ty_through" route="0011" depart="61" departspeed="15"/>
    <vehicle id="b10_5" type="ty_through" route="1010" depart="61" departspeed="15"/>
    <vehicle id="b21_10" type="ty_through" route="1021" depart="61" departspeed="15"/>
    <vehicle id="c30_8" type="ty_through" route="1130" depart="61" departspeed="15"/>
    <vehicle id="d42_9" type="ty_through" route="0142" depart="63" departspeed="15"/>
    <vehicle id="a11_7" type="ty_through" route="0011" depart="64" departspeed="15"/>
    <vehicle id="b21_11" type="ty_through" route="1021" depart="64" departspeed="15"/>
    <vehicle id="a41_10" type="ty_through" route="0041" depart="65" departspeed="15"/>
    <vehicle id="b12_7" type="ty_through" route="1012" depart="65" departspeed="15"/>
    <vehicle id="c20_8" type="ty_through" route="1120" depart="65" departspeed="15"/>
    <vehicle id="d40_6" type="ty_through" route="0140" depart="65" departspeed="15"/>
    <vehicle id="b21_12" type="ty_through" route="1021" depart="66" departspeed="15"/>
    <vehicle id="c21_7" type="ty_through" route="1121" depart="66" departspeed="15"/>
    <vehicle id="d42_10" type="ty_through" route="0142" depart="66" departspeed="15"/>
    <vehicle id="d41_5" type="ty_through" route="0141" depart="66" departspeed="15"/>
    <vehicle id="d32_7" type="ty_through" route="0132" depart="67" departspeed="15"/>
    <vehicle id="b21_13" type="ty_through" route="1021" depart="68" departspeed="15"/>
    <vehicle id="c32_5" type="ty_through" route="1132" depart="68" departspeed="15"/>
    <vehicle id="c30_9" type="ty_through" route="1130" depart="68" departspeed="15"/>
    <vehicle id="c20_9" type="ty_through" route="1120" depart="68" departspeed="15"/>
    <vehicle id="a10_7" type="ty_through" route="0010" depart="69" departspeed="15"/>
    <vehicle id="a42_5" type="ty_through" route="0042" depart="69" departspeed="15"/>
    <vehicle id="b22_10" type="ty_through" route="1022" depart="69" departspeed="15"/>
    <vehicle id="c22_7" type="ty_through" route="1122" depart="70" departspeed="15"/>
    <vehicle id="b12_8" type="ty_through" route="1012" depart="71" departspeed="15"/>
    <vehicle id="c22_8" type="ty_through" route="1122" depart="71" departspeed="15"/>
    <vehicle id="d31_6" type="ty_through" route="0131" depart="71" departspeed="15"/>
    <vehicle id="c32_6" type="ty_through" route="1132" depart="72" departspeed="15"/>
    <vehicle id="c31_3" type="ty_through" route="1131" depart="72" departspeed="15"/>
    <vehicle id="d30_15" type="ty_through" route="0130" depart="72" departspeed="15"/>
    <vehicle id="c32_7" type="ty_through" route="1132" depart="73" departspeed="15"/>
    <vehicle id="d31_7" type="ty_through" route="0131" depart="73" departspeed="15"/>
    <vehicle id="d42_11" type="ty_through" route="0142" depart="73" departspeed="15"/>
    <vehicle id="d41_6" type="ty_through" route="0141" depart="73" departspeed="15"/>
    <vehicle id="c21_8" type="ty_through" route="1121" depart="74" departspeed="15"/>
    <vehicle id="b21_14" type="ty_through" route="1021" depart="75" departspeed="15"/>
    <vehicle id="a42_6" type="ty_through" route="0042" depart="76" departspeed="15"/>
    <vehicle id="a41_11" type="ty_through" route="0041" depart="76" departspeed="15"/>
    <vehicle id="b22_11" type="ty_through" route="1022" depart="76" departspeed="15"/>
    <vehicle id="b20_4" type="ty_through" route="1020" depart="76" departspeed="15"/>
    <vehicle id="c21_9" type="ty_through" route="1121" depart="76" departspeed="15"/>
    <vehicle id="a12_10" type="ty_through" route="0012" depart="78" departspeed="15"/>
    <vehicle id="a10_8" type="ty_through" route="0010" depart="79" departspeed="15"/>
    <vehicle id="d30_16" type="ty_through" route="0130" depart="79" departspeed="15"/>
    <vehicle id="d41_7" type="ty_through" route="0141" depart="79" departspeed="15"/>
    <vehicle id="d40_7" type="ty_through" route="0140" depart="79" departspeed="15"/>
    <vehicle id="a12_11" type="ty_through" route="0012" depart="80" departspeed="15"/>
    <vehicle id="a40_5" type="ty_through" route="0040" depart="80" departspeed="15"/>
    <vehicle id="c31_4" type="ty_through" route="1131" depart="80" departspeed="15"/>
    <vehicle id="d31_8" type="ty_through" route="0131" depart="80" departspeed="15"/>
    <vehicle id="a12_12" type="ty_through" route="0012" depart="82" departspeed="15"/>
    <vehicle id="a42_7" type="ty_through" route="0042" depart="82" departspeed="15"/>
    <vehicle id="c21_10" type="ty_through" route="1121" depart="82" departspeed="15"/>
    <vehicle id="d42_12" type="ty_through" route="0142" depart="82" departspeed="15"/>
    <vehicle id="d40_8" type="ty_through" route="0140" depart="82" departspeed="15"/>
    <vehicle id="c22_9" type="ty_through" route="1122" depart="83" departspeed="15"/>
    <vehicle id="a40_6" type="ty_through" route="0040" depart="84" departspeed="15"/>
    <vehicle id="d30_17" type="ty_through" route="0130" depart="84" departspeed="15"/>
    <vehicle id="a41_12" type="ty_through" route="0041" depart="85" departspeed="15"/>
    <vehicle id="d41_8" type="ty_through" route="0141" depart="85" departspeed="15"/>
    <vehicle id="c20_10" type="ty_through" route="1120" depart="86" departspeed="15"/>
    <vehicle id="d31_9" type="ty_through" route="0131" depart="86" departspeed="15"/>
    <vehicle id="b11_3" type="ty_through" route="1011" depart="87" departspeed="15"/>
    <vehicle id="b21_15" type="ty_through" route="1021" depart="88" departspeed="15"/>
    <vehicle id="a40_7" type="ty_through" route="0040" depart="89" departspeed="15"/>
    <vehicle id="a11_8" type="ty_through" route="0011" depart="90" departspeed="15"/>
    <vehicle id="d30_18" type="ty_through" route="0130" depart="90" departspeed="15"/>
    <vehicle id="d40_9" type="ty_through" route="0140" depart="90" departspeed="15"/>
    <vehicle id="a40_8" type="ty_through" route="0040" depart="91" departspeed="15"/>
    <vehicle id="d42_13" type="ty_through" route="0142" depart="91" departspeed="15"/>
    <vehicle id="a10_9" type="ty_through" route="0010" depart="92" departspeed="15"/>
    <vehicle id="b10_6" type="ty_through" route="1010" depart="92" departspeed="15"/>
    <vehicle id="c31_5" type="ty_through" route="1131" depart="92" departspeed="15"/>
    <vehicle id="c22_10" type="ty_through" route="1122" depart="92" departspeed="15"/>
    <vehicle id="c31_6" type="ty_through" route="1131" depart="93" departspeed="15"/>
    <vehicle id="c20_11" type="ty_through" route="1120" depart="93" departspeed="15"/>
    <vehicle id="d41_9" type="ty_through" route="0141" depart="93" departspeed="15"/>
    <vehicle id="a11_9" type="ty_through" route="0011" depart="94" departspeed="15"/>
    <vehicle id="a41_13" type="ty_through" route="0041" depart="95" departspeed="15"/>
    <vehicle id="d31_10" type="ty_through" route="0131" depart="95" departspeed="15"/>
    <vehicle id="a10_10" type="ty_through" route="0010" depart="96" departspeed="15"/>
    <vehicle id="a41_14" type="ty_through" route="0041" depart="96" departspeed="15"/>
    <vehicle id="c32_8" type="ty_through" route="1132" depart="96" departspeed="15"/>
    <vehicle id="c21_11" type="ty_through" route="1121" depart="96" departspeed="15"/>
    <vehicle id="d30_19" type="ty_through" route="0130" depart="96" departspeed="15"/>
    <vehicle id="c31_7" type="ty_through" route="1131" depart="97" departspeed="15"/>
    <vehicle id="a40_9" type="ty_through" route="0040" depart="98" departspeed="15"/>
    <vehicle id="b20_5" type="ty_through" route="1020" depart="98" departspeed="15"/>
    <vehicle id="c21_12" type="ty_through" route="1121" depart="98" departspeed="15"/>
    <vehicle id="d32_8" type="ty_through" route="0132" depart="98" departspeed="15"/>
    <vehicle id="d31_11" type="ty_through" route="0131" depart="99" departspeed="15"/>
    <vehicle id="c30_10" type="ty_through" route="1130" depart="100" departspeed="15"/>
    <vehicle id="c20_12" type="ty_through" route="1120" depart="100" departspeed="15"/>
    <vehicle id="b11_4" type="ty_through" route="1011" depart="101" departspeed="15"/>
    <vehicle id="c20_13" type="ty_through" route="1120" depart="101" departspeed="15"/>
    <vehicle id="d32_9" type="ty_through" route="0132" depart="101" departspeed="15"/>
    <vehicle id="d31_12" type="ty_through" route="0131" depart="101" departspeed="15"/>
    <vehicle id="d30_20" type="ty_through" route="0130" depart="101" departspeed="15"/>
    <vehicle id="a11_10" type="ty_through" route="0011" depart="102" departspeed="15"/>
    <vehicle id="c20_14" type="ty_through" route="1120" depart="102" departspeed="15"/>
    <vehicle id="b10_7" type="ty_through" route="1010" depart="103" departspeed="15"/>
    <vehicle id="b22_12" type="ty_through" route="1022" depart="103" departspeed="15"/>
    <vehicle id="b21_16" type="ty_through" route="1021" depart="103" departspeed="15"/>
    <vehicle id="c32_9" type="ty_through" route="1132" depart="103" departspeed="15"/>
    <vehicle id="d32_10" type="ty_through" route="0132" depart="103" departspeed="15"/>
    <vehicle id="d31_13" type="ty_through" route="0131" depart="103" departspeed="15"/>
    <vehicle id="a41_15" type="ty_through" route="0041" depart="104" departspeed="15"/>
    <vehicle id="b21_17" type="ty_through" route="1021" depart="104" departspeed="15"/>
    <vehicle id="c32_10" type="ty_through" route="1132" depart="106" departspeed="15"/>
    <vehicle id="a10_11" type="ty_through" route="0010" depart="107" departspeed="15"/>
    <vehicle id="c21_13" type="ty_through" route="1121" depart="108" departspeed="15"/>
    <vehicle id="d31_14" type="ty_through" route="0131" depart="108" departspeed="15"/>
    <vehicle id="a10_12" type="ty_through" route="0010" depart="110" departspeed="15"/>
    <vehicle id="c22_11" type="ty_through" route="1122" depart="111" departspeed="15"/>
    <vehicle id="c20_15" type="ty_through" route="1120" depart="111" departspeed="15"/>
    <vehicle id="b22_13" type="ty_through" route="1022" depart="112" departspeed="15"/>
    <vehicle id="d42_14" type="ty_through" route="0142" depart="112" departspeed="15"/>
    <vehicle id="a10_13" type="ty_through" route="0010" depart="113" departspeed="15"/>
    <vehicle id="a41_16" type="ty_through" route="0041" depart="113" departspeed="15"/>
    <vehicle id="b22_14" type="ty_through" route="1022" depart="113" departspeed="15"/>
    <vehicle id="c31_8" type="ty_through" route="1131" depart="113" departspeed="15"/>
    <vehicle id="a12_13" type="ty_through" route="0012" depart="114" departspeed="15"/>
    <vehicle id="a40_10" type="ty_through" route="0040" depart="114" departspeed="15"/>
    <vehicle id="a41_17" type="ty_through" route="0041" depart="115" departspeed="15"/>
    <vehicle id="c22_12" type="ty_through" route="1122" depart="115" departspeed="15"/>
    <vehicle id="d31_15" type="ty_through" route="0131" depart="115" departspeed="15"/>
    <vehicle id="a40_11" type="ty_through" route="0040" depart="116" departspeed="15"/>
    <vehicle id="c20_16" type="ty_through" route="1120" depart="116" departspeed="15"/>
    <vehicle id="d42_15" type="ty_through" route="0142" depart="116" departspeed="15"/>
    <vehicle id="a11_11" type="ty_through" route="0011" depart="117" departspeed="15"/>
    <vehicle id="c20_17" type="ty_through" route="1120" depart="117" departspeed="15"/>
    <vehicle id="a10_14" type="ty_through" route="0010" depart="118" departspeed="15"/>
    <vehicle id="b22_15" type="ty_through" route="1022" depart="118" departspeed="15"/>
    <vehicle id="c32_11" type="ty_through" route="1132" depart="118" departspeed="15"/>
    <vehicle id="d32_11" type="ty_through" route="0132" depart="118" departspeed="15"/>
    <vehicle id="b12_9" type="ty_through" route="1012" depart="119" departspeed="15"/>
    <vehicle id="b22_16" type="ty_through" route="1022" depart="119" departspeed="15"/>
    <vehicle id="b21_18" type="ty_through" route="1021" depart="119" departspeed="15"/>
    <vehicle id="c32_12" type="ty_through" route="1132" depart="119" departspeed="15"/>
    <vehicle id="c20_18" type="ty_through" route="1120" depart="119" departspeed="15"/>
    <vehicle id="d40_10" type="ty_through" route="0140" depart="119" departspeed="15"/>
    <vehicle id="a12_14" type="ty_through" route="0012" depart="120" departspeed="15"/>
    <vehicle id="a42_8" type="ty_through" route="0042" depart="120" departspeed="15"/>
    <vehicle id="d31_16" type="ty_through" route="0131" depart="120" departspeed="15"/>
    <vehicle id="d42_16" type="ty_through" route="0142" depart="120" departspeed="15"/>
    <vehicle id="c31_9" type="ty_through" route="1131" depart="121" departspeed="15"/>
    <vehicle id="c22_13" type="ty_through" route="1122" depart="121" departspeed="15"/>
    <vehicle id="c32_13" type="ty_through" route="1132" depart="122" departspeed="15"/>
    <vehicle id="d41_10" type="ty_through" route="0141" depart="122" departspeed="15"/>
    <vehicle id="a42_9" type="ty_through" route="0042" depart="123" departspeed="15"/>
    <vehicle id="b12_10" type="ty_through" route="1012" depart="123" departspeed="15"/>
    <vehicle id="b10_8" type="ty_through" route="1010" depart="123" departspeed="15"/>
    <vehicle id="b22_17" type="ty_through" route="1022" depart="123" departspeed="15"/>
    <vehicle id="c32_14" type="ty_through" route="1132" depart="123" departspeed="15"/>
    <vehicle id="d32_12" type="ty_through" route="0132" depart="123" departspeed="15"/>
    <vehicle id="d30_21" type="ty_through" route="0130" depart="123" departspeed="15"/>
    <vehicle id="a11_12" type="ty_through" route="0011" depart="124" departspeed="15"/>