<?xml version="1.0" encoding="UTF-8"?>

<!-- generated on 01/19/19 16:06:53 by Eclipse SUMO jtrrouter Version 1.0.1
<configuration xmlns:xsi="http://www.w3.org/2001/XMLSchema-instance" xsi:noNamespaceSchemaLocation="http://sumo.dlr.de/xsd/jtrrouterConfiguration.xsd">

    <input>
        <net-file value="intersection.net.xml"/>
        <route-files value="flowdef.rou.xml"/>
        <turn-ratio-files value="intersection.turndefs.xml"/>
    </input>

    <output>
        <output-file value="intersectiontest.rou.xml"/>
    </output>

    <processing>
        <no-internal-links value="true"/>
        <accept-all-destinations value="true"/>
    </processing>

    <random_number>
        <random value="true"/>
    </random_number>

</configuration>
-->

<routes xmlns:xsi="http://www.w3.org/2001/XMLSchema-instance" xsi:noNamespaceSchemaLocation="http://sumo.dlr.de/xsd/routes_file.xsd">
    <vType id="car" length="5.00" minGap="2.00" maxSpeed="15.00" guiShape="passenger" lcStrategic="1000000000" lcCooperative="1.0" lcAssertive="100" accel="3" decel="4.5" sigma="0.5"/>
    <vehicle id="a3i.0" type="car" depart="0.00">
        <route edges="a3i a1o"/>
    </vehicle>
    <vehicle id="a1i.0" type="car" depart="2.00">
        <route edges="a1i a2o"/>
    </vehicle>
    <vehicle id="a2i.0" type="car" depart="3.00">
        <route edges="a2i a3o"/>
    </vehicle>
    <vehicle id="a1i.1" type="car" depart="5.00">
        <route edges="a1i a4o"/>
    </vehicle>
    <vehicle id="a1i.2" type="car" depart="6.00">
        <route edges="a1i a3o"/>
    </vehicle>
    <vehicle id="a2i.1" type="car" depart="6.00">
        <route edges="a2i a1o"/>
    </vehicle>
    <vehicle id="a3i.1" type="car" depart="6.00">
        <route edges="a3i a1o"/>
    </vehicle>
    <vehicle id="a4i.0" type="car" depart="6.00">
        <route edges="a4i a3o"/>
    </vehicle>
    <vehicle id="a1i.3" type="car" depart="7.00">
        <route edges="a1i a4o"/>
    </vehicle>
    <vehicle id="a4i.1" type="car" depart="8.00">
        <route edges="a4i a3o"/>
    </vehicle>
    <vehicle id="a2i.2" type="car" depart="9.00">
        <route edges="a2i a1o"/>
    </vehicle>
    <vehicle id="a1i.4" type="car" depart="10.00">
        <route edges="a1i a3o"/>
    </vehicle>
    <vehicle id="a3i.2" type="car" depart="10.00">
        <route edges="a3i a2o"/>
    </vehicle>
    <vehicle id="a1i.5" type="car" depart="11.00">
        <route edges="a1i a4o"/>
    </vehicle>
    <vehicle id="a2i.3" type="car" depart="11.00">
        <route edges="a2i a3o"/>
    </vehicle>
    <vehicle id="a1i.6" type="car" depart="12.00">
        <route edges="a1i a3o"/>
    </vehicle>
    <vehicle id="a3i.3" type="car" depart="12.00">
        <route edges="a3i a2o"/>
    </vehicle>
    <vehicle id="a4i.2" type="car" depart="13.00">
        <route edges="a4i a3o"/>
    </vehicle>
    <vehicle id="a3i.4" type="car" depart="14.00">
        <route edges="a3i a4o"/>
    </vehicle>
    <vehicle id="a4i.3" type="car" depart="14.00">
        <route edges="a4i a1o"/>
    </vehicle>
    <vehicle id="a3i.5" type="car" depart="16.00">
        <route edges="a3i a4o"/>
    </vehicle>
    <vehicle id="a2i.4" type="car" depart="17.00">
        <route edges="a2i a4o"/>
    </vehicle>
    <vehicle id="a3i.6" type="car" depart="17.00">
        <route edges="a3i a2o"/>
    </vehicle>
    <vehicle id="a4i.4" type="car" depart="17.00">
        <route edges="a4i a2o"/>
    </vehicle>
    <vehicle id="a3i.7" type="car" depart="18.00">
        <route edges="a3i a4o"/>
    </vehicle>
    <vehicle id="a4i.5" type="car" depart="18.00">
        <route edges="a4i a1o"/>
    </vehicle>
    <vehicle id="a1i.7" type="car" depart="21.00">
        <route edges="a1i a2o"/>
    </vehicle>
    <vehicle id="a2i.5" type="car" depart="21.00">
        <route edges="a2i a4o"/>
    </vehicle>
    <vehicle id="a4i.6" type="car" depart="21.00">
        <route edges="a4i a1o"/>
    </vehicle>
    <vehicle id="a4i.7" type="car" depart="23.00">
        <route edges="a4i a3o"/>
    </vehicle>
    <vehicle id="a3i.8" type="car" depart="24.00">
        <route edges="a3i a2o"/>
    </vehicle>
    <vehicle id="a4i.8" type="car" depart="24.00">
        <route edges="a4i a2o"/>
    </vehicle>
    <vehicle id="a4i.9" type="car" depart="25.00">
        <route edges="a4i a1o"/>
    </vehicle>
    <vehicle id="a1i.8" type="car" depart="26.00">
        <route edges="a1i a4o"/>
    </vehicle>
    <vehicle id="a4i.10" type="car" depart="26.00">
        <route edges="a4i a2o"/>
    </vehicle>
    <vehicle id="a3i.9" type="car" depart="27.00">
        <route edges="a3i a1o"/>
    </vehicle>
    <vehicle id="a3i.10" type="car" depart="28.00">
        <route edges="a3i a4o"/>
    </vehicle>
    <vehicle id="a3i.11" type="car" depart="29.00">
        <route edges="a3i a4o"/>
    </vehicle>
    <vehicle id="a4i.11" type="car" depart="29.00">
        <route edges="a4i a3o"/>
    </vehicle>
    <vehicle id="a1i.9" type="car" depart="30.00">
        <route edges="a1i a4o"/>
    </vehicle>
    <vehicle id="a2i.6" type="car" depart="30.00">
        <route edges="a2i a4o"/>
    </vehicle>
    <vehicle id="a3i.12" type="car" depart="30.00">
        <route edges="a3i a4o"/>
    </vehicle>
    <vehicle id="a3i.13" type="car" depart="31.00">
        <route edges="a3i a4o"/>
    </vehicle>
    <vehicle id="a4i.12" type="car" depart="31.00">
        <route edges="a4i a1o"/>
    </vehicle>
    <vehicle id="a3i.14" type="car" depart="32.00">
        <route edges="a3i a4o"/>
    </vehicle>
    <vehicle id="a1i.10" type="car" depart="33.00">
        <route edges="a1i a4o"/>
    </vehicle>
    <vehicle id="a4i.13" type="car" depart="33.00">
        <route edges="a4i a3o"/>
    </vehicle>
    <vehicle id="a4i.14" type="car" depart="34.00">
        <route edges="a4i a3o"/>
    </vehicle>
    <vehicle id="a2i.7" type="car" depart="36.00">
        <route edges="a2i a1o"/>
    </vehicle>
    <vehicle id="a3i.15" type="car" depart="36.00">
        <route edges="a3i a1o"/>
    </vehicle>
    <vehicle id="a1i.11" type="car" depart="37.00">
        <route edges="a1i a4o"/>
    </vehicle>
    <vehicle id="a2i.8" type="car" depart="37.00">
        <route edges="a2i a3o"/>
    </vehicle>
    <vehicle id="a3i.16" type="car" depart="37.00">
        <route edges="a3i a1o"/>
    </vehicle>
    <vehicle id="a1i.12" type="car" depart="38.00">
        <route edges="a1i a2o"/>
    </vehicle>
    <vehicle id="a3i.17" type="car" depart="38.00">
        <route edges="a3i a1o"/>
    </vehicle>
    <vehicle id="a4i.15" type="car" depart="38.00">
        <route edges="a4i a2o"/>
    </vehicle>
    <vehicle id="a1i.13" type="car" depart="39.00">
        <route edges="a1i a4o"/>
    </vehicle>
    <vehicle id="a2i.9" type="car" depart="39.00">
        <route edges="a2i a1o"/>
    </vehicle>
    <vehicle id="a3i.18" type="car" depart="39.00">
        <route edges="a3i a2o"/>
    </vehicle>
    <vehicle id="a3i.19" type="car" depart="40.00">
        <route edges="a3i a4o"/>
    </vehicle>
    <vehicle id="a1i.14" type="car" depart="41.00">
        <route edges="a1i a3o"/>
    </vehicle>
    <vehicle id="a2i.10" type="car" depart="41.00">
        <route edges="a2i a4o"/>
    </vehicle>
    <vehicle id="a1i.15" type="car" depart="42.00">
        <route edges="a1i a2o"/>
    </vehicle>
    <vehicle id="a3i.20" type="car" depart="42.00">
        <route edges="a3i a2o"/>
    </vehicle>
    <vehicle id="a1i.16" type="car" depart="43.00">
        <route edges="a1i a2o"/>
    </vehicle>
    <vehicle id="a3i.21" type="car" depart="43.00">
        <route edges="a3i a2o"/>
    </vehicle>
    <vehicle id="a4i.16" type="car" depart="43.00">
        <route edges="a4i a1o"/>
    </vehicle>
    <vehicle id="a1i.17" type="car" depart="44.00">
        <route edges="a1i a2o"/>
    </vehicle>
    <vehicle id="a2i.11" type="car" depart="44.00">
        <route edges="a2i a1o"/>
    </vehicle>
    <vehicle id="a3i.22" type="car" depart="44.00">
        <route edges="a3i a4o"/>
    </vehicle>
    <vehicle id="a4i.17" type="car" depart="44.00">
        <route edges="a4i a3o"/>
    </vehicle>
    <vehicle id="a4i.18" type="car" depart="45.00">
        <route edges="a4i a3o"/>
    </vehicle>
    <vehicle id="a2i.12" type="car" depart="46.00">
        <route edges="a2i a4o"/>
    </vehicle>
    <vehicle id="a4i.19" type="car" depart="46.00">
        <route edges="a4i a1o"/>
    </vehicle>
    <vehicle id="a2i.13" type="car" depart="47.00">
        <route edges="a2i a4o"/>
    </vehicle>
    <vehicle id="a3i.23" type="car" depart="47.00">
        <route edges="a3i a1o"/>
    </vehicle>
    <vehicle id="a1i.18" type="car" depart="48.00">
        <route edges="a1i a2o"/>
    </vehicle>
    <vehicle id="a2i.14" type="car" depart="48.00">
        <route edges="a2i a3o"/>
    </vehicle>
    <vehicle id="a1i.19" type="car" depart="49.00">
        <route edges="a1i a3o"/>
    </vehicle>
    <vehicle id="a1i.20" type="car" depart="50.00">
        <route edges="a1i a4o"/>
    </vehicle>
    <vehicle id="a2i.15" type="car" depart="50.00">
        <route edges="a2i a3o"/>
    </vehicle>
    <vehicle id="a3i.24" type="car" depart="53.00">
        <route edges="a3i a1o"/>
    </vehicle>
    <vehicle id="a4i.20" type="car" depart="53.00">
        <route edges="a4i a1o"/>
    </vehicle>
    <vehicle id="a4i.21" type="car" depart="55.00">
        <route edges="a4i a1o"/>
    </vehicle>
    <vehicle id="a1i.21" type="car" depart="56.00">
        <route edges="a1i a2o"/>
    </vehicle>
    <vehicle id="a3i.25" type="car" depart="56.00">
        <route edges="a3i a4o"/>
    </vehicle>
    <vehicle id="a4i.22" type="car" depart="56.00">
        <route edges="a4i a1o"/>
    </vehicle>
    <vehicle id="a1i.22" type="car" depart="57.00">
        <route edges="a1i a4o"/>
    </vehicle>
    <vehicle id="a2i.16" type="car" depart="57.00">
        <route edges="a2i a4o"/>
    </vehicle>
    <vehicle id="a4i.23" type="car" depart="58.00">
        <route edges="a4i a1o"/>
    </vehicle>
    <vehicle id="a1i.23" type="car" depart="59.00">
        <route edges="a1i a4o"/>
    </vehicle>
    <vehicle id="a4i.24" type="car" depart="59.00">
        <route edges="a4i a3o"/>
    </vehicle>
    <vehicle id="a2i.17" type="car" depart="61.00">
        <route edges="a2i a3o"/>
    </vehicle>
    <vehicle id="a4i.25" type="car" depart="61.00">
        <route edges="a4i a1o"/>
    </vehicle>
    <vehicle id="a4i.26" type="car" depart="62.00">
        <route edges="a4i a2o"/>
    </vehicle>
    <vehicle id="a4i.27" type="car" depart="63.00">
        <route edges="a4i a3o"/>
    </vehicle>
    <vehicle id="a1i.24" type="car" depart="64.00">
        <route edges="a1i a2o"/>
    </vehicle>
    <vehicle id="a3i.26" type="car" depart="64.00">
        <route edges="a3i a1o"/>
    </vehicle>
    <vehicle id="a2i.18" type="car" depart="65.00">
        <route edges="a2i a3o"/>
    </vehicle>
    <vehicle id="a1i.25" type="car" depart="66.00">
        <route edges="a1i a4o"/>
    </vehicle>
    <vehicle id="a2i.19" type="car" depart="66.00">
        <route edges="a2i a3o"/>
    </vehicle>
    <vehicle id="a3i.27" type="car" depart="66.00">
        <route edges="a3i a1o"/>
    </vehicle>
    <vehicle id="a3i.28" type="car" depart="67.00">
        <route edges="a3i a2o"/>
    </vehicle>
    <vehicle id="a4i.28" type="car" depart="67.00">
        <route edges="a4i a2o"/>
    </vehicle>
    <vehicle id="a1i.26" type="car" depart="68.00">
        <route edges="a1i a2o"/>
    </vehicle>
    <vehicle id="a2i.20" type="car" depart="68.00">
        <route edges="a2i a4o"/>
    </vehicle>
    <vehicle id="a1i.27" type="car" depart="69.00">
        <route edges="a1i a3o"/>
    </vehicle>
    <vehicle id="a2i.21" type="car" depart="69.00">
        <route edges="a2i a3o"/>
    </vehicle>
    <vehicle id="a3i.29" type="car" depart="69.00">
        <route edges="a3i a4o"/>
    </vehicle>
    <vehicle id="a3i.30" type="car" depart="70.00">
        <route edges="a3i a4o"/>
    </vehicle>
    <vehicle id="a1i.28" type="car" depart="71.00">
        <route edges="a1i a3o"/>
    </vehicle>
    <vehicle id="a2i.22" type="car" depart="71.00">
        <route edges="a2i a4o"/>
    </vehicle>
    <vehicle id="a4i.29" type="car" depart="71.00">
        <route edges="a4i a1o"/>
    </vehicle>
    <vehicle id="a3i.31" type="car" depart="73.00">
        <route edges="a3i a1o"/>
    </vehicle>
    <vehicle id="a4i.30" type="car" depart="73.00">
        <route edges="a4i a1o"/>
    </vehicle>
    <vehicle id="a4i.31" type="car" depart="74.00">
        <route edges="a4i a3o"/>
    </vehicle>
    <vehicle id="a3i.32" type="car" depart="75.00">
        <route edges="a3i a2o"/>
    </vehicle>
    <vehicle id="a4i.32" type="car" depart="75.00">
        <route edges="a4i a1o"/>
    </vehicle>
    <vehicle id="a2i.23" type="car" depart="76.00">
        <route edges="a2i a1o"/>
    </vehicle>
    <vehicle id="a3i.33" type="car" depart="76.00">
        <route edges="a3i a2o"/>
    </vehicle>
    <vehicle id="a4i.33" type="car" depart="77.00">
        <route edges="a4i a1o"/>
    </vehicle>
    <vehicle id="a4i.34" type="car" depart="78.00">
        <route edges="a4i a2o"/>
    </vehicle>
    <vehicle id="a1i.29" type="car" depart="79.00">
        <route edges="a1i a4o"/>
    </vehicle>
    <vehicle id="a4i.35" type="car" depart="79.00">
        <route edges="a4i a3o"/>
    </vehicle>
    <vehicle id="a1i.30" type="car" depart="80.00">
        <route edges="a1i a2o"/>
    </vehicle>
    <vehicle id="a3i.34" type="car" depart="80.00">
        <route edges="a3i a4o"/>
    </vehicle>
    <vehicle id="a4i.36" type="car" depart="80.00">
        <route edges="a4i a1o"/>
    </vehicle>
    <vehicle id="a4i.37" type="car" depart="81.00">
        <route edges="a4i a2o"/>
    </vehicle>
    <vehicle id="a1i.31" type="car" depart="82.00">
        <route edges="a1i a4o"/>
    </vehicle>
    <vehicle id="a2i.24" type="car" depart="82.00">
        <route edges="a2i a4o"/>
    </vehicle>
    <vehicle id="a3i.35" type="car" depart="83.00">
        <route edges="a3i a4o"/>
    </vehicle>
    <vehicle id="a1i.32" type="car" depart="84.00">
        <route edges="a1i a4o"/>
    </vehicle>
    <vehicle id="a2i.25" type="car" depart="84.00">
        <route edges="a2i a3o"/>
    </vehicle>
    <vehicle id="a3i.36" type="car" depart="84.00">
        <route edges="a3i a4o"/>
    </vehicle>
    <vehicle id="a1i.33" type="car" depart="85.00">
        <route edges="a1i a4o"/>
    </vehicle>
    <vehicle id="a3i.37" type="car" depart="85.00">
        <route edges="a3i a4o"/>
    </vehicle>
    <vehicle id="a4i.38" type="car" depart="85.00">
        <route edges="a4i a2o"/>
    </vehicle>
    <vehicle id="a2i.26" type="car" depart="86.00">
        <route edges="a2i a3o"/>
    </vehicle>
    <vehicle id="a4i.39" type="car" depart="87.00">
        <route edges="a4i a3o"/>
    </vehicle>
    <vehicle id="a1i.34" type="car" depart="88.00">
        <route edges="a1i a2o"/>
    </vehicle>
    <vehicle id="a3i.38" type="car" depart="88.00">
        <route edges="a3i a4o"/>
    </vehicle>
    <vehicle id="a3i.39" type="car" depart="89.00">
        <route edges="a3i a4o"/>
    </vehicle>
    <vehicle id="a1i.35" type="car" depart="90.00">
        <route edges="a1i a3o"/>
    </vehicle>
    <vehicle id="a2i.27" type="car" depart="90.00">
        <route edges="a2i a3o"/>
    </vehicle>
    <vehicle id="a3i.40" type="car" depart="91.00">
        <route edges="a3i a1o"/>
    </vehicle>
    <vehicle id="a4i.40" type="car" depart="91.00">
        <route edges="a4i a1o"/>
    </vehicle>
    <vehicle id="a4i.41" type="car" depart="93.00">
        <route edges="a4i a2o"/>
    </vehicle>
    <vehicle id="a1i.36" type="car" depart="94.00">
        <route edges="a1i a2o"/>
    </vehicle>
    <vehicle id="a2i.28" type="car" depart="94.00">
        <route edges="a2i a1o"/>
    </vehicle>
    <vehicle id="a3i.41" type="car" depart="94.00">
        <route edges="a3i a1o"/>
    </vehicle>
    <vehicle id="a4i.42" type="car" depart="94.00">
        <route edges="a4i a1o"/>
    </vehicle>
    <vehicle id="a2i.29" type="car" depart="95.00">
        <route edges="a2i a3o"/>
    </vehicle>
    <vehicle id="a4i.43" type="car" depart="95.00">
        <route edges="a4i a1o"/>
    </vehicle>
    <vehicle id="a3i.42" type="car" depart="96.00">
        <route edges="a3i a4o"/>
    </vehicle>
    <vehicle id="a1i.37" type="car" depart="97.00">
        <route edges="a1i a2o"/>
    </vehicle>
    <vehicle id="a2i.30" type="car" depart="97.00">
        <route edges="a2i a1o"/>
    </vehicle>
    <vehicle id="a3i.43" type="car" depart="97.00">
        <route edges="a3i a1o"/>
    </vehicle>
    <vehicle id="a4i.44" type="car" depart="98.00">
        <route edges="a4i a2o"/>
    </vehicle>
    <vehicle id="a2i.31" type="car" depart="99.00">
        <route edges="a2i a1o"/>
    </vehicle>
    <vehicle id="a3i.44" type="car" depart="99.00">
        <route edges="a3i a4o"/>
    </vehicle>
    <vehicle id="a3i.45" type="car" depart="100.00">
        <route edges="a3i a1o"/>
    </vehicle>
    <vehicle id="a2i.32" type="car" depart="101.00">
        <route edges="a2i a4o"/>
    </vehicle>
    <vehicle id="a4i.45" type="car" depart="101.00">
        <route edges="a4i a3o"/>
    </vehicle>
    <vehicle id="a2i.33" type="car" depart="102.00">
        <route edges="a2i a1o"/>
    </vehicle>
    <vehicle id="a3i.46" type="car" depart="102.00">
        <route edges="a3i a2o"/>
    </vehicle>
    <vehicle id="a4i.46" type="car" depart="102.00">
        <route edges="a4i a3o"/>
    </vehicle>
    <vehicle id="a2i.34" type="car" depart="103.00">
        <route edges="a2i a1o"/>
    </vehicle>
    <vehicle id="a1i.38" type="car" depart="104.00">
        <route edges="a1i a2o"/>
    </vehicle>
    <vehicle id="a4i.47" type="car" depart="104.00">
        <route edges="a4i a1o"/>
    </vehicle>
    <vehicle id="a4i.48" type="car" depart="106.00">
        <route edges="a4i a2o"/>
    </vehicle>
    <vehicle id="a1i.39" type="car" depart="107.00">
        <route edges="a1i a2o"/>
    </vehicle>
    <vehicle id="a2i.35" type="car" depart="107.00">
        <route edges="a2i a3o"/>
    </vehicle>
    <vehicle id="a4i.49" type="car" depart="107.00">
        <route edges="a4i a3o"/>
    </vehicle>
    <vehicle id="a1i.40" type="car" depart="108.00">
        <route edges="a1i a2o"/>
    </vehicle>
    <vehicle id="a2i.36" type="car" depart="108.00">
        <route edges="a2i a3o"/>
    </vehicle>
    <vehicle id="a1i.41" type="car" depart="109.00">
        <route edges="a1i a2o"/>
    </vehicle>
    <vehicle id="a2i.37" type="car" depart="109.00">
        <route edges="a2i a3o"/>
    </vehicle>
    <vehicle id="a3i.47" type="car" depart="109.00">
        <route edges="a3i a4o"/>
    </vehicle>
    <vehicle id="a4i.50" type="car" depart="109.00">
        <route edges="a4i a1o"/>
    </vehicle>
    <vehicle id="a3i.48" type="car" depart="110.00">
        <route edges="a3i a2o"/>
    </vehicle>
    <vehicle id="a4i.51" type="car" depart="110.00">
        <route edges="a4i a2o"/>
    </vehicle>
    <vehicle id="a2i.38" type="car" depart="111.00">
        <route edges="a2i a3o"/>
    </vehicle>
    <vehicle id="a2i.39" type="car" depart="112.00">
        <route edges="a2i a4o"/>
    </vehicle>
    <vehicle id="a1i.42" type="car" depart="114.00">
        <route edges="a1i a4o"/>
    </vehicle>
    <vehicle id="a2i.40" type="car" depart="114.00">
        <route edges="a2i a3o"/>
    </vehicle>
    <vehicle id="a4i.52" type="car" depart="114.00">
        <route edges="a4i a3o"/>
    </vehicle>
    <vehicle id="a2i.41" type="car" depart="115.00">
        <route edges="a2i a4o"/>
    </vehicle>
    <vehicle id="a4i.53" type="car" depart="115.00">
        <route edges="a4i a3o"/>
    </vehicle>
    <vehicle id="a4i.54" type="car" depart="116.00">
        <route edges="a4i a3o"/>
    </vehicle>
    <vehicle id="a1i.43" type="car" depart="117.00">
        <route edges="a1i a4o"/>
    </vehicle>
    <vehicle id="a2i.42" type="car" depart="117.00">
        <route edges="a2i a3o"/>
    </vehicle>
    <vehicle id="a3i.49" type="car" depart="117.00">
        <route edges="a3i a4o"/>
    </vehicle>
    <vehicle id="a4i.55" type="car" depart="117.00">
        <route edges="a4i a3o"/>
    </vehicle>
    <vehicle id="a3i.50" type="car" depart="118.00">
        <route edges="a3i a2o"/>
    </vehicle>
    <vehicle id="a1i.44" type="car" depart="119.00">
        <route edges="a1i a3o"/>
    </vehicle>
    <vehicle id="a3i.51" type="car" depart="119.00">
        <route edges="a3i a4o"/>
    </vehicle>
    <vehicle id="a1i.45" type="car" depart="120.00">
        <route edges="a1i a2o"/>
    </vehicle>
    <vehicle id="a3i.52" type="car" depart="120.00">
        <route edges="a3i a1o"/>
    </vehicle>
    <vehicle id="a4i.56" type="car" depart="120.00">
        <route edges="a4i a3o"/>
    </vehicle>
    <vehicle id="a2i.43" type="car" depart="121.00">
        <route edges="a2i a1o"/>
    </vehicle>
    <vehicle id="a4i.57" type="car" depart="121.00">
        <route edges="a4i a3o"/>
    </vehicle>
    <vehicle id="a1i.46" type="car" depart="122.00">
        <route edges="a1i a4o"/>
    </vehicle>
    <vehicle id="a1i.47" type="car" depart="123.00">
        <route edges="a1i a4o"/>
    </vehicle>
    <vehicle id="a4i.58" type="car" depart="123.00">
        <route edges="a4i a1o"/>
    </vehicle>
    <vehicle id="a1i.48" type="car" depart="124.00">
        <route edges="a1i a3o"/>
    </vehicle>
    <vehicle id="a2i.44" type="car" depart="124.00">
        <route edges="a2i a1o"/>
    </vehicle>
    <vehicle id="a3i.53" type="car" depart="124.00">
        <route edges="a3i a4o"/>
    </vehicle>
    <vehicle id="a4i.59" type="car" depart="124.00">
        <route edges="a4i a2o"/>
    </vehicle>
    <vehicle id="a3i.54" type="car" depart="125.00">
        <route edges="a3i a4o"/>
    </vehicle>
    <vehicle id="a4i.60" type="car" depart="125.00">
        <route edges="a4i a1o"/>
    </vehicle>
    <vehicle id="a2i.45" type="car" depart="126.00">
        <route edges="a2i a3o"/>
    </vehicle>
    <vehicle id="a3i.55" type="car" depart="126.00">
        <route edges="a3i a2o"/>
    </vehicle>
    <vehicle id="a4i.61" type="car" depart="126.00">
        <route edges="a4i a3o"/>
    </vehicle>
    <vehicle id="a1i.49" type="car" depart="127.00">
        <route edges="a1i a3o"/>
    </vehicle>
    <vehicle id="a2i.46" type="car" depart="127.00">
        <route edges="a2i a3o"/>
    </vehicle>
    <vehicle id="a3i.56" type="car" depart="127.00">
        <route edges="a3i a1o"/>
    </vehicle>
    <vehicle id="a1i.50" type="car" depart="128.00">
        <route edges="a1i a3o"/>
    </vehicle>
    <vehicle id="a2i.47" type="car" depart="129.00">
        <route edges="a2i a4o"/>
    </vehicle>
    <vehicle id="a3i.57" type="car" depart="129.00">
        <route edges="a3i a1o"/>
    </vehicle>
    <vehicle id="a4i.62" type="car" depart="129.00">
        <route edges="a4i a3o"/>
    </vehicle>
    <vehicle id="a2i.48" type="car" depart="130.00">
        <route edges="a2i a1o"/>
    </vehicle>
    <vehicle id="a1i.51" type="car" depart="131.00">
        <route edges="a1i a4o"/>
    </vehicle>
    <vehicle id="a4i.63" type="car" depart="131.00">
        <route edges="a4i a3o"/>
    </vehicle>
    <vehicle id="a1i.52" type="car" depart="132.00">
        <route edges="a1i a4o"/>
    </vehicle>
    <vehicle id="a3i.58" type="car" depart="133.00">
        <route edges="a3i a1o"/>
    </vehicle>
    <vehicle id="a2i.49" type="car" depart="134.00">
        <route edges="a2i a3o"/>
    </vehicle>
    <vehicle id="a3i.59" type="car" depart="135.00">
        <route edges="a3i a2o"/>
    </vehicle>
    <vehicle id="a4i.64" type="car" depart="136.00">
        <route edges="a4i a2o"/>
    </vehicle>
    <vehicle id="a2i.50" type="car" depart="137.00">
        <route edges="a2i a4o"/>
    </vehicle>
    <vehicle id="a3i.60" type="car" depart="137.00">
        <route edges="a3i a4o"/>
    </vehicle>
    <vehicle id="a4i.65" type="car" depart="137.00">
        <route edges="a4i a2o"/>
    </vehicle>
    <vehicle id="a2i.51" type="car" depart="138.00">
        <route edges="a2i a4o"/>
    </vehicle>
    <vehicle id="a4i.66" type="car" depart="138.00">
        <route edges="a4i a1o"/>
    </vehicle>
    <vehicle id="a2i.52" type="car" depart="139.00">
        <route edges="a2i a4o"/>
    </vehicle>
    <vehicle id="a1i.53" type="car" depart="140.00">
        <route edges="a1i a4o"/>
    </vehicle>
    <vehicle id="a2i.53" type="car" depart="140.00">
        <route edges="a2i a1o"/>
    </vehicle>
    <vehicle id="a3i.61" type="car" depart="140.00">
        <route edges="a3i a4o"/>
    </vehicle>
    <vehicle id="a3i.62" type="car" depart="141.00">
        <route edges="a3i a4o"/>
    </vehicle>
    <vehicle id="a4i.67" type="car" depart="141.00">
        <route edges="a4i a2o"/>
    </vehicle>
    <vehicle id="a2i.54" type="car" depart="142.00">
        <route edges="a2i a1o"/>
    </vehicle>
    <vehicle id="a3i.63" type="car" depart="142.00">
        <route edges="a3i a2o"/>
    </vehicle>
    <vehicle id="a3i.64" type="car" depart="143.00">
        <route edges="a3i a4o"/>
    </vehicle>
    <vehicle id="a4i.68" type="car" depart="143.00">
        <route edges="a4i a1o"/>
    </vehicle>
    <vehicle id="a2i.55" type="car" depart="144.00">
        <route edges="a2i a3o"/>
    </vehicle>
    <vehicle id="a1i.54" type="car" depart="145.00">
        <route edges="a1i a4o"/>
    </vehicle>
    <vehicle id="a2i.56" type="car" depart="145.00">
        <route edges="a2i a4o"/>
    </vehicle>
    <vehicle id="a4i.69" type="car" depart="145.00">
        <route edges="a4i a2o"/>
    </vehicle>
    <vehicle id="a1i.55" type="car" depart="146.00">
        <route edges="a1i a2o"/>
    </vehicle>
    <vehicle id="a2i.57" type="car" depart="146.00">
        <route edges="a2i a1o"/>
    </vehicle>
    <vehicle id="a4i.70" type="car" depart="146.00">
        <route edges="a4i a1o"/>
    </vehicle>
    <vehicle id="a3i.65" type="car" depart="147.00">
        <route edges="a3i a4o"/>
    </vehicle>
    <vehicle id="a3i.66" type="car" depart="148.00">
        <route edges="a3i a1o"/>
    </vehicle>
    <vehicle id="a1i.56" type="car" depart="149.00">
        <route edges="a1i a2o"/>
    </vehicle>
    <vehicle id="a3i.67" type="car" depart="149.00">
        <route edges="a3i a1o"/>
    </vehicle>
    <vehicle id="a4i.71" type="car" depart="150.00">
        <route edges="a4i a1o"/>
    </vehicle>
    <vehicle id="a2i.58" type="car" depart="151.00">
        <route edges="a2i a3o"/>
    </vehicle>
    <vehicle id="a3i.68" type="car" depart="151.00">
        <route edges="a3i a4o"/>
    </vehicle>
    <vehicle id="a4i.72" type="car" depart="151.00">
        <route edges="a4i a1o"/>
    </vehicle>
    <vehicle id="a2i.59" type="car" depart="152.00">
        <route edges="a2i a3o"/>
    </vehicle>
    <vehicle id="a4i.73" type="car" depart="152.00">
        <route edges="a4i a1o"/>
    </vehicle>
    <vehicle id="a2i.60" type="car" depart="154.00">
        <route edges="a2i a4o"/>
    </vehicle>
    <vehicle id="a3i.69" type="car" depart="154.00">
        <route edges="a3i a1o"/>
    </vehicle>
    <vehicle id="a4i.74" type="car" depart="155.00">
        <route edges="a4i a2o"/>
    </vehicle>
    <vehicle id="a1i.57" type="car" depart="156.00">
        <route edges="a1i a2o"/>
    </vehicle>
    <vehicle id="a3i.70" type="car" depart="156.00">
        <route edges="a3i a1o"/>
    </vehicle>
    <vehicle id="a2i.61" type="car" depart="157.00">
        <route edges="a2i a1o"/>
    </vehicle>
    <vehicle id="a1i.58" type="car" depart="158.00">
        <route edges="a1i a2o"/>
    </vehicle>
    <vehicle id="a3i.71" type="car" depart="158.00">
        <route edges="a3i a4o"/>
    </vehicle>
    <vehicle id="a2i.62" type="car" depart="160.00">
        <route edges="a2i a3o"/>
    </vehicle>
    <vehicle id="a1i.59" type="car" depart="161.00">
        <route edges="a1i a3o"/>
    </vehicle>
    <vehicle id="a3i.72" type="car" depart="162.00">
        <route edges="a3i a4o"/>
    </vehicle>
    <vehicle id="a1i.60" type="car" depart="163.00">
        <route edges="a1i a2o"/>
    </vehicle>
    <vehicle id="a2i.63" type="car" depart="163.00">
        <route edges="a2i a4o"/>
    </vehicle>
    <vehicle id="a1i.61" type="car" depart="164.00">
        <route edges="a1i a4o"/>
    </vehicle>
    <vehicle id="a2i.64" type="car" depart="164.00">
        <route edges="a2i a1o"/>
    </vehicle>
    <vehicle id="a3i.73" type="car" depart="164.00">
        <route edges="a3i a2o"/>
    </vehicle>
    <vehicle id="a2i.65" type="car" depart="166.00">
        <route edges="a2i a3o"/>
    </vehicle>
    <vehicle id="a1i.62" type="car" depart="167.00">
        <route edges="a1i a3o"/>
    </vehicle>
    <vehicle id="a4i.75" type="car" depart="167.00">
        <route edges="a4i a2o"/>
    </vehicle>
    <vehicle id="a3i.74" type="car" depart="169.00">
        <route edges="a3i a2o"/>
    </vehicle>
    <vehicle id="a4i.76" type="car" depart="169.00">
        <route edges="a4i a2o"/>
    </vehicle>
    <vehicle id="a2i.66" type="car" depart="171.00">
        <route edges="a2i a1o"/>
    </vehicle>
    <vehicle id="a1i.63" type="car" depart="172.00">
        <route edges="a1i a2o"/>
    </vehicle>
    <vehicle id="a2i.67" type="car" depart="172.00">
        <route edges="a2i a1o"/>
    </vehicle>
    <vehicle id="a1i.64" type="car" depart="173.00">
        <route edges="a1i a3o"/>
    </vehicle>
    <vehicle id="a2i.68" type="car" depart="173.00">
        <route edges="a2i a1o"/>
    </vehicle>
    <vehicle id="a1i.65" type="car" depart="174.00">
        <route edges="a1i a4o"/>
    </vehicle>
    <vehicle id="a2i.69" type="car" depart="174.00">
        <route edges="a2i a4o"/>
    </vehicle>