<?xml version="1.0" encoding="UTF-8"?>
<nodes xmlns:xsi="http://www.w3.org/2001/XMLSchema-instance" xsi:noNamespaceSchemaLocation="http://sumo.dlr.de/xsd/nodes_file.xsd">
   <node id="a" x="0.0" y="0.0"  type="traffic_light" />
   <node id="a1" x="0.0" y="-150.0" />
   <node id="a2" x="150.0" y="0.0" />
   <node id="a3" x="0.0" y="150.0" />
   <node id="a4" x="-150.0" y="0.0" />
</nodes>