<?xml version="1.0" encoding="UTF-8"?>

<!-- generated on 11/07/18 15:07:05 by SUMO netconvert Version 0.32.0
<?xml version="1.0" encoding="UTF-8"?>

<configuration xmlns:xsi="http://www.w3.org/2001/XMLSchema-instance" xsi:noNamespaceSchemaLocation="http://sumo.dlr.de/xsd/netconvertConfiguration.xsd">

    <input>
        <node-files value="intersection.nod.xml"/>
        <edge-files value="intersection.edg.xml"/>
        <connection-files value="intersection.con.xml"/>
    </input>

    <output>
        <output-file value="intersection.net.xml"/>
    </output>

    <processing>
        <no-turnarounds value="true"/>
    </processing>

    <report>
        <verbose value="true"/>
    </report>

</configuration>
-->

<net version="0.27" xmlns:xsi="http://www.w3.org/2001/XMLSchema-instance" xsi:noNamespaceSchemaLocation="http://sumo.dlr.de/xsd/net_file.xsd">

    <location netOffset="150.00,150.00" convBoundary="0.00,0.00,800.00,800.00" origBoundary="-150.00,-150.00,650.00,650.00" projParameter="!"/>

    <edge id=":a_0" function="internal">
        <lane id=":a_0_0" index="0" speed="15.28" length="5.00" shape="141.75,161.35 141.56,159.99 140.97,159.03 140.01,158.44 138.65,158.25"/>
    </edge>
    <edge id=":a_1" function="internal">
        <lane id=":a_1_0" index="0" speed="15.28" length="22.70" shape="145.05,161.35 145.05,138.65"/>
    </edge>
    <edge id=":a_2" function="internal">
        <lane id=":a_2_0" index="0" speed="15.28" length="12.52" shape="148.35,161.35 149.16,155.66 151.60,151.60 153.35,150.55"/>
    </edge>
    <edge id=":a_12" function="internal">
        <lane id=":a_12_0" index="0" speed="15.28" length="8.44" shape="153.35,150.55 155.66,149.16 161.35,148.35"/>
    </edge>
    <edge id=":a_3" function="internal">
        <lane id=":a_3_0" index="0" speed="15.28" length="5.00" shape="161.35,158.25 159.99,158.44 159.03,159.03 158.44,159.99 158.25,161.35"/>
    </edge>
    <edge id=":a_4" function="internal">
        <lane id=":a_4_0" index="0" speed="15.28" length="22.70" shape="161.35,154.95 138.65,154.95"/>
    </edge>
    <edge id=":a_5" function="internal">
        <lane id=":a_5_0" index="0" speed="15.28" length="12.52" shape="161.35,151.65 155.66,150.84 151.60,148.40 150.55,146.65"/>
    </edge>
    <edge id=":a_13" function="internal">
        <lane id=":a_13_0" index="0" speed="15.28" length="8.44" shape="150.55,146.65 149.16,144.34 148.35,138.65"/>
    </edge>
    <edge id=":a_6" function="internal">
        <lane id=":a_6_0" index="0" speed="15.28" length="5.00" shape="158.25,138.65 158.44,140.01 159.03,140.97 159.99,141.56 161.35,141.75"/>
    </edge>
    <edge id=":a_7" function="internal">
        <lane id=":a_7_0" index="0" speed="15.28" length="22.70" shape="154.95,138.65 154.95,161.35"/>
    </edge>
    <edge id=":a_8" function="internal">
        <lane id=":a_8_0" index="0" speed="15.28" length="12.52" shape="151.65,138.65 150.84,144.34 148.40,148.40 146.65,149.45"/>
    </edge>
    <edge id=":a_14" function="internal">
        <lane id=":a_14_0" index="0" speed="15.28" length="8.44" shape="146.65,149.45 144.34,150.84 138.65,151.65"/>
    </edge>
    <edge id=":a_9" function="internal">
        <lane id=":a_9_0" index="0" speed="15.28" length="5.00" shape="138.65,141.75 140.01,141.56 140.97,140.97 141.56,140.01 141.75,138.65"/>
    </edge>
    <edge id=":a_10" function="internal">
        <lane id=":a_10_0" index="0" speed="15.28" length="22.70" shape="138.65,145.05 161.35,145.05"/>
    </edge>
    <edge id=":a_11" function="internal">
        <lane id=":a_11_0" index="0" speed="15.28" length="12.52" shape="138.65,148.35 144.34,149.16 148.40,151.60 149.45,153.35"/>
    </edge>
    <edge id=":a_15" function="internal">
        <lane id=":a_15_0" index="0" speed="15.28" length="8.44" shape="149.45,153.35 150.84,155.66 151.65,161.35"/>
    </edge>
    <edge id=":a2_0" function="internal">
        <lane id=":a2_0_0" index="0" speed="15.28" length="0.10" shape="300.00,158.25 300.00,158.25"/>
        <lane id=":a2_0_1" index="1" speed="15.28" length="0.10" shape="300.00,154.95 300.00,154.95"/>
        <lane id=":a2_0_2" index="2" speed="15.28" length="0.10" shape="300.00,151.65 300.00,151.65"/>
    </edge>
    <edge id=":a2_3" function="internal">
        <lane id=":a2_3_0" index="0" speed="15.28" length="0.10" shape="300.00,141.75 300.00,141.75"/>
        <lane id=":a2_3_1" index="1" speed="15.28" length="0.10" shape="300.00,145.05 300.00,145.05"/>
        <lane id=":a2_3_2" index="2" speed="15.28" length="0.10" shape="300.00,148.35 300.00,148.35"/>
    </edge>
    <edge id=":a3_0" function="internal">
        <lane id=":a3_0_0" index="0" speed="19.44" length="0.10" shape="141.75,300.00 141.75,300.00"/>
        <lane id=":a3_0_1" index="1" speed="19.44" length="0.10" shape="145.05,300.00 145.05,300.00"/>
        <lane id=":a3_0_2" index="2" speed="19.44" length="0.10" shape="148.35,300.00 148.35,300.00"/>
    </edge>
    <edge id=":a3_3" function="internal">
        <lane id=":a3_3_0" index="0" speed="11.11" length="0.10" shape="158.25,300.00 158.25,300.00"/>
        <lane id=":a3_3_1" index="1" speed="11.11" length="0.10" shape="154.95,300.00 154.95,300.00"/>
        <lane id=":a3_3_2" index="2" speed="11.11" length="0.10" shape="151.65,300.00 151.65,300.00"/>
    </edge>
    <edge id=":b_0" function="internal">
        <lane id=":b_0_0" index="0" speed="15.28" length="5.00" shape="641.75,161.35 641.56,159.99 640.98,159.03 640.01,158.44 638.65,158.25"/>
    </edge>
    <edge id=":b_1" function="internal">
        <lane id=":b_1_0" index="0" speed="15.28" length="22.70" shape="645.05,161.35 645.05,138.65"/>
    </edge>
    <edge id=":b_2" function="internal">
        <lane id=":b_2_0" index="0" speed="15.28" length="12.52" shape="648.35,161.35 649.16,155.66 651.60,151.60 653.35,150.55"/>
    </edge>
    <edge id=":b_12" function="internal">
        <lane id=":b_12_0" index="0" speed="15.28" length="8.44" shape="653.35,150.55 655.66,149.16 661.35,148.35"/>
    </edge>
    <edge id=":b_3" function="internal">
        <lane id=":b_3_0" index="0" speed="15.28" length="5.00" shape="661.35,158.25 659.99,158.44 659.02,159.03 658.44,159.99 658.25,161.35"/>
    </edge>
    <edge id=":b_4" function="internal">
        <lane id=":b_4_0" index="0" speed="15.28" length="22.70" shape="661.35,154.95 638.65,154.95"/>
    </edge>
    <edge id=":b_5" function="internal">
        <lane id=":b_5_0" index="0" speed="15.28" length="12.52" shape="661.35,151.65 655.66,150.84 651.60,148.40 650.55,146.65"/>
    </edge>
    <edge id=":b_13" function="internal">
        <lane id=":b_13_0" index="0" speed="15.28" length="8.44" shape="650.55,146.65 649.16,144.34 648.35,138.65"/>
    </edge>
    <edge id=":b_6" function="internal">
        <lane id=":b_6_0" index="0" speed="15.28" length="5.00" shape="658.25,138.65 658.44,140.01 659.02,140.97 659.99,141.56 661.35,141.75"/>
    </edge>
    <edge id=":b_7" function="internal">
        <lane id=":b_7_0" index="0" speed="15.28" length="22.70" shape="654.95,138.65 654.95,161.35"/>
    </edge>
    <edge id=":b_8" function="internal">
        <lane id=":b_8_0" index="0" speed="15.28" length="12.52" shape="651.65,138.65 650.84,144.34 648.40,148.40 646.65,149.45"/>
    </edge>
    <edge id=":b_14" function="internal">
        <lane id=":b_14_0" index="0" speed="15.28" length="8.44" shape="646.65,149.45 644.34,150.84 638.65,151.65"/>
    </edge>
    <edge id=":b_9" function="internal">
        <lane id=":b_9_0" index="0" speed="15.28" length="5.00" shape="638.65,141.75 640.01,141.56 640.98,140.97 641.56,140.01 641.75,138.65"/>
    </edge>
    <edge id=":b_10" function="internal">
        <lane id=":b_10_0" index="0" speed="15.28" length="22.70" shape="638.65,145.05 661.35,145.05"/>
    </edge>
    <edge id=":b_11" function="internal">
        <lane id=":b_11_0" index="0" speed="15.28" length="12.52" shape="638.65,148.35 644.34,149.16 648.40,151.60 649.45,153.35"/>
    </edge>
    <edge id=":b_15" function="internal">
        <lane id=":b_15_0" index="0" speed="15.28" length="8.44" shape="649.45,153.35 650.84,155.66 651.65,161.35"/>
    </edge>
    <edge id=":b3_0" function="internal">
        <lane id=":b3_0_0" index="0" speed="15.28" length="0.10" shape="641.75,300.00 641.75,300.00"/>
        <lane id=":b3_0_1" index="1" speed="15.28" length="0.10" shape="645.05,300.00 645.05,300.00"/>
        <lane id=":b3_0_2" index="2" speed="15.28" length="0.10" shape="648.35,300.00 648.35,300.00"/>
    </edge>
    <edge id=":b3_3" function="internal">
        <lane id=":b3_3_0" index="0" speed="15.28" length="0.10" shape="658.25,300.00 658.25,300.00"/>
        <lane id=":b3_3_1" index="1" speed="15.28" length="0.10" shape="654.95,300.00 654.95,300.00"/>
        <lane id=":b3_3_2" index="2" speed="15.28" length="0.10" shape="651.65,300.00 651.65,300.00"/>
    </edge>
    <edge id=":b4_0" function="internal">
        <lane id=":b4_0_0" index="0" speed="11.11" length="0.10" shape="500.00,158.25 500.00,158.25"/>
        <lane id=":b4_0_1" index="1" speed="11.11" length="0.10" shape="500.00,154.95 500.00,154.95"/>
        <lane id=":b4_0_2" index="2" speed="11.11" length="0.10" shape="500.00,151.65 500.00,151.65"/>
    </edge>
    <edge id=":b4_3" function="internal">
        <lane id=":b4_3_0" index="0" speed="19.44" length="0.10" shape="500.00,141.75 500.00,141.75"/>
        <lane id=":b4_3_1" index="1" speed="19.44" length="0.10" shape="500.00,145.05 500.00,145.05"/>
        <lane id=":b4_3_2" index="2" speed="19.44" length="0.10" shape="500.00,148.35 500.00,148.35"/>
    </edge>
    <edge id=":c_0" function="internal">
        <lane id=":c_0_0" index="0" speed="15.28" length="5.00" shape="641.75,661.35 641.56,659.99 640.98,659.02 640.01,658.44 638.65,658.25"/>
    </edge>
    <edge id=":c_1" function="internal">
        <lane id=":c_1_0" index="0" speed="15.28" length="22.70" shape="645.05,661.35 645.05,638.65"/>
    </edge>
    <edge id=":c_2" function="internal">
        <lane id=":c_2_0" index="0" speed="15.28" length="12.52" shape="648.35,661.35 649.16,655.66 651.60,651.60 653.35,650.55"/>
    </edge>
    <edge id=":c_12" function="internal">
        <lane id=":c_12_0" index="0" speed="15.28" length="8.44" shape="653.35,650.55 655.66,649.16 661.35,648.35"/>
    </edge>
    <edge id=":c_3" function="internal">
        <lane id=":c_3_0" index="0" speed="15.28" length="5.00" shape="661.35,658.25 659.99,658.44 659.02,659.02 658.44,659.99 658.25,661.35"/>
    </edge>
    <edge id=":c_4" function="internal">
        <lane id=":c_4_0" index="0" speed="15.28" length="22.70" shape="661.35,654.95 638.65,654.95"/>
    </edge>
    <edge id=":c_5" function="internal">
        <lane id=":c_5_0" index="0" speed="15.28" length="12.52" shape="661.35,651.65 655.66,650.84 651.60,648.40 650.55,646.65"/>
    </edge>
    <edge id=":c_13" function="internal">
        <lane id=":c_13_0" index="0" speed="15.28" length="8.44" shape="650.55,646.65 649.16,644.34 648.35,638.65"/>
    </edge>
    <edge id=":c_6" function="internal">
        <lane id=":c_6_0" index="0" speed="15.28" length="5.00" shape="658.25,638.65 658.44,640.01 659.02,640.98 659.99,641.56 661.35,641.75"/>
    </edge>
    <edge id=":c_7" function="internal">
        <lane id=":c_7_0" index="0" speed="15.28" length="22.70" shape="654.95,638.65 654.95,661.35"/>
    </edge>
    <edge id=":c_8" function="internal">
        <lane id=":c_8_0" index="0" speed="15.28" length="12.52" shape="651.65,638.65 650.84,644.34 648.40,648.40 646.65,649.45"/>
    </edge>
    <edge id=":c_14" function="internal">
        <lane id=":c_14_0" index="0" speed="15.28" length="8.44" shape="646.65,649.45 644.34,650.84 638.65,651.65"/>
    </edge>
    <edge id=":c_9" function="internal">
        <lane id=":c_9_0" index="0" speed="15.28" length="5.00" shape="638.65,641.75 640.01,641.56 640.98,640.98 641.56,640.01 641.75,638.65"/>
    </edge>
    <edge id=":c_10" function="internal">
        <lane id=":c_10_0" index="0" speed="15.28" length="22.70" shape="638.65,645.05 661.35,645.05"/>
    </edge>
    <edge id=":c_11" function="internal">
        <lane id=":c_11_0" index="0" speed="15.28" length="12.52" shape="638.65,648.35 644.34,649.16 648.40,651.60 649.45,653.35"/>
    </edge>
    <edge id=":c_15" function="internal">
        <lane id=":c_15_0" index="0" speed="15.28" length="8.44" shape="649.45,653.35 650.84,655.66 651.65,661.35"/>
    </edge>
    <edge id=":c1_0" function="internal">
        <lane id=":c1_0_0" index="0" speed="11.11" length="0.10" shape="641.75,500.00 641.75,500.00"/>
        <lane id=":c1_0_1" index="1" speed="11.11" length="0.10" shape="645.05,500.00 645.05,500.00"/>
        <lane id=":c1_0_2" index="2" speed="11.11" length="0.10" shape="648.35,500.00 648.35,500.00"/>
    </edge>
    <edge id=":c1_3" function="internal">
        <lane id=":c1_3_0" index="0" speed="19.44" length="0.10" shape="658.25,500.00 658.25,500.00"/>
        <lane id=":c1_3_1" index="1" speed="19.44" length="0.10" shape="654.95,500.00 654.95,500.00"/>
        <lane id=":c1_3_2" index="2" speed="19.44" length="0.10" shape="651.65,500.00 651.65,500.00"/>
    </edge>
    <edge id=":c4_0" function="internal">
        <lane id=":c4_0_0" index="0" speed="15.28" length="0.10" shape="500.00,658.25 500.00,658.25"/>
        <lane id=":c4_0_1" index="1" speed="15.28" length="0.10" shape="500.00,654.95 500.00,654.95"/>
        <lane id=":c4_0_2" index="2" speed="15.28" length="0.10" shape="500.00,651.65 500.00,651.65"/>
    </edge>
    <edge id=":c4_3" function="internal">
        <lane id=":c4_3_0" index="0" speed="15.28" length="0.10" shape="500.00,641.75 500.00,641.75"/>
        <lane id=":c4_3_1" index="1" speed="15.28" length="0.10" shape="500.00,645.05 500.00,645.05"/>
        <lane id=":c4_3_2" index="2" speed="15.28" length="0.10" shape="500.00,648.35 500.00,648.35"/>
    </edge>
    <edge id=":d_0" function="internal">
        <lane id=":d_0_0" index="0" speed="15.28" length="5.00" shape="141.75,661.35 141.56,659.99 140.97,659.02 140.01,658.44 138.65,658.25"/>
    </edge>
    <edge id=":d_1" function="internal">
        <lane id=":d_1_0" index="0" speed="15.28" length="22.70" shape="145.05,661.35 145.05,638.65"/>
    </edge>
    <edge id=":d_2" function="internal">
        <lane id=":d_2_0" index="0" speed="15.28" length="12.52" shape="148.35,661.35 149.16,655.66 151.60,651.60 153.35,650.55"/>
    </edge>
    <edge id=":d_12" function="internal">
        <lane id=":d_12_0" index="0" speed="15.28" length="8.44" shape="153.35,650.55 155.66,649.16 161.35,648.35"/>
    </edge>
    <edge id=":d_3" function="internal">
        <lane id=":d_3_0" index="0" speed="15.28" length="5.00" shape="161.35,658.25 159.99,658.44 159.03,659.02 158.44,659.99 158.25,661.35"/>
    </edge>
    <edge id=":d_4" function="internal">
        <lane id=":d_4_0" index="0" speed="15.28" length="22.70" shape="161.35,654.95 138.65,654.95"/>
    </edge>
    <edge id=":d_5" function="internal">
        <lane id=":d_5_0" index="0" speed="15.28" length="12.52" shape="161.35,651.65 155.66,650.84 151.60,648.40 150.55,646.65"/>
    </edge>
    <edge id=":d_13" function="internal">
        <lane id=":d_13_0" index="0" speed="15.28" length="8.44" shape="150.55,646.65 149.16,644.34 148.35,638.65"/>
    </edge>
    <edge id=":d_6" function="internal">
        <lane id=":d_6_0" index="0" speed="15.28" length="5.00" shape="158.25,638.65 158.44,640.01 159.03,640.98 159.99,641.56 161.35,641.75"/>
    </edge>
    <edge id=":d_7" function="internal">
        <lane id=":d_7_0" index="0" speed="15.28" length="22.70" shape="154.95,638.65 154.95,661.35"/>
    </edge>
    <edge id=":d_8" function="internal">
        <lane id=":d_8_0" index="0" speed="15.28" length="12.52" shape="151.65,638.65 150.84,644.34 148.40,648.40 146.65,649.45"/>
    </edge>
    <edge id=":d_14" function="internal">
        <lane id=":d_14_0" index="0" speed="15.28" length="8.44" shape="146.65,649.45 144.34,650.84 138.65,651.65"/>
    </edge>
    <edge id=":d_9" function="internal">
        <lane id=":d_9_0" index="0" speed="15.28" length="5.00" shape="138.65,641.75 140.01,641.56 140.97,640.98 141.56,640.01 141.75,638.65"/>
    </edge>
    <edge id=":d_10" function="internal">
        <lane id=":d_10_0" index="0" speed="15.28" length="22.70" shape="138.65,645.05 161.35,645.05"/>
    </edge>
    <edge id=":d_11" function="internal">
        <lane id=":d_11_0" index="0" speed="15.28" length="12.52" shape="138.65,648.35 144.34,649.16 148.40,651.60 149.45,653.35"/>
    </edge>
    <edge id=":d_15" function="internal">
        <lane id=":d_15_0" index="0" speed="15.28" length="8.44" shape="149.45,653.35 150.84,655.66 151.65,661.35"/>
    </edge>
    <edge id=":d1_0" function="internal">
        <lane id=":d1_0_0" index="0" speed="15.28" length="0.10" shape="141.75,500.00 141.75,500.00"/>
        <lane id=":d1_0_1" index="1" speed="15.28" length="0.10" shape="145.05,500.00 145.05,500.00"/>
        <lane id=":d1_0_2" index="2" speed="15.28" length="0.10" shape="148.35,500.00 148.35,500.00"/>
    </edge>
    <edge id=":d1_3" function="internal">
        <lane id=":d1_3_0" index="0" speed="15.28" length="0.10" shape="158.25,500.00 158.25,500.00"/>
        <lane id=":d1_3_1" index="1" speed="15.28" length="0.10" shape="154.95,500.00 154.95,500.00"/>
        <lane id=":d1_3_2" index="2" speed="15.28" length="0.10" shape="151.65,500.00 151.65,500.00"/>
    </edge>
    <edge id=":d2_0" function="internal">
        <lane id=":d2_0_0" index="0" speed="19.44" length="0.10" shape="300.00,658.25 300.00,658.25"/>
        <lane id=":d2_0_1" index="1" speed="19.44" length="0.10" shape="300.00,654.95 300.00,654.95"/>
        <lane id=":d2_0_2" index="2" speed="19.44" length="0.10" shape="300.00,651.65 300.00,651.65"/>
    </edge>
    <edge id=":d2_3" function="internal">
        <lane id=":d2_3_0" index="0" speed="11.11" length="0.10" shape="300.00,641.75 300.00,641.75"/>
        <lane id=":d2_3_1" index="1" speed="11.11" length="0.10" shape="300.00,645.05 300.00,645.05"/>
        <lane id=":d2_3_2" index="2" speed="11.11" length="0.10" shape="300.00,648.35 300.00,648.35"/>
    </edge>

    <edge id="0001" from="a3" to="d1" priority="46">
        <lane id="0001_0" index="0" speed="11.11" length="200.00" shape="158.25,300.00 158.25,500.00"/>
        <lane id="0001_1" index="1" speed="11.11" length="200.00" shape="154.95,300.00 154.95,500.00"/>
        <lane id="0001_2" index="2" speed="11.11" length="200.00" shape="151.65,300.00 151.65,500.00"/>
    </edge>
    <edge id="0010" from="a2" to="b4" priority="78">
        <lane id="0010_0" index="0" speed="19.44" length="200.00" shape="300.00,141.75 500.00,141.75"/>
        <lane id="0010_1" index="1" speed="19.44" length="200.00" shape="300.00,145.05 500.00,145.05"/>
        <lane id="0010_2" index="2" speed="19.44" length="200.00" shape="300.00,148.35 500.00,148.35"/>
    </edge>
    <edge id="0100" from="d1" to="a3" priority="78">
        <lane id="0100_0" index="0" speed="19.44" length="200.00" shape="141.75,500.00 141.75,300.00"/>
        <lane id="0100_1" index="1" speed="19.44" length="200.00" shape="145.05,500.00 145.05,300.00"/>
        <lane id="0100_2" index="2" speed="19.44" length="200.00" shape="148.35,500.00 148.35,300.00"/>
    </edge>
    <edge id="0111" from="d2" to="c4" priority="46">
        <lane id="0111_0" index="0" speed="11.11" length="200.00" shape="300.00,641.75 500.00,641.75"/>
        <lane id="0111_1" index="1" speed="11.11" length="200.00" shape="300.00,645.05 500.00,645.05"/>
        <lane id="0111_2" index="2" speed="11.11" length="200.00" shape="300.00,648.35 500.00,648.35"/>
    </edge>
    <edge id="1000" from="b4" to="a2" priority="46">
        <lane id="1000_0" index="0" speed="11.11" length="200.00" shape="500.00,158.25 300.00,158.25"/>
        <lane id="1000_1" index="1" speed="11.11" length="200.00" shape="500.00,154.95 300.00,154.95"/>
        <lane id="1000_2" index="2" speed="11.11" length="200.00" shape="500.00,151.65 300.00,151.65"/>
    </edge>
    <edge id="1011" from="b3" to="c1" priority="78">
        <lane id="1011_0" index="0" speed="19.44" length="200.00" shape="658.25,300.00 658.25,500.00"/>
        <lane id="1011_1" index="1" speed="19.44" length="200.00" shape="654.95,300.00 654.95,500.00"/>
        <lane id="1011_2" index="2" speed="19.44" length="200.00" shape="651.65,300.00 651.65,500.00"/>
    </edge>
    <edge id="1101" from="c4" to="d2" priority="78">
        <lane id="1101_0" index="0" speed="19.44" length="200.00" shape="500.00,658.25 300.00,658.25"/>
        <lane id="1101_1" index="1" speed="19.44" length="200.00" shape="500.00,654.95 300.00,654.95"/>
        <lane id="1101_2" index="2" speed="19.44" length="200.00" shape="500.00,651.65 300.00,651.65"/>
    </edge>
    <edge id="1110" from="c1" to="b3" priority="46">
        <lane id="1110_0" index="0" speed="11.11" length="200.00" shape="641.75,500.00 641.75,300.00"/>
        <lane id="1110_1" index="1" speed="11.11" length="200.00" shape="645.05,500.00 645.05,300.00"/>
        <lane id="1110_2" index="2" speed="11.11" length="200.00" shape="648.35,500.00 648.35,300.00"/>
    </edge>
    <edge id="a1i" from="a1" to="a" priority="78">
        <lane id="a1i_0" index="0" speed="19.44" length="138.65" shape="158.25,0.00 158.25,138.65"/>
        <lane id="a1i_1" index="1" speed="19.44" length="138.65" shape="154.95,0.00 154.95,138.65"/>
        <lane id="a1i_2" index="2" speed="19.44" length="138.65" shape="151.65,0.00 151.65,138.65"/>
    </edge>
    <edge id="a1o" from="a" to="a1" priority="46">
        <lane id="a1o_0" index="0" speed="11.11" length="138.65" shape="141.75,138.65 141.75,0.00"/>
        <lane id="a1o_1" index="1" speed="11.11" length="138.65" shape="145.05,138.65 145.05,0.00"/>
        <lane id="a1o_2" index="2" speed="11.11" length="138.65" shape="148.35,138.65 148.35,0.00"/>
    </edge>
    <edge id="a2i" from="a2" to="a" priority="78">
        <lane id="a2i_0" index="0" speed="19.44" length="138.65" shape="300.00,158.25 161.35,158.25"/>
        <lane id="a2i_1" index="1" speed="19.44" length="138.65" shape="300.00,154.95 161.35,154.95"/>
        <lane id="a2i_2" index="2" speed="19.44" length="138.65" shape="300.00,151.65 161.35,151.65"/>
    </edge>
    <edge id="a2o" from="a" to="a2" priority="46">
        <lane id="a2o_0" index="0" speed="11.11" length="138.65" shape="161.35,141.75 300.00,141.75"/>
        <lane id="a2o_1" index="1" speed="11.11" length="138.65" shape="161.35,145.05 300.00,145.05"/>
        <lane id="a2o_2" index="2" speed="11.11" length="138.65" shape="161.35,148.35 300.00,148.35"/>
    </edge>
    <edge id="a3i" from="a3" to="a" priority="78">
        <lane id="a3i_0" index="0" speed="19.44" length="138.65" shape="141.75,300.00 141.75,161.35"/>
        <lane id="a3i_1" index="1" speed="19.44" length="138.65" shape="145.05,300.00 145.05,161.35"/>
        <lane id="a3i_2" index="2" speed="19.44" length="138.65" shape="148.35,300.00 148.35,161.35"/>
    </edge>
    <edge id="a3o" from="a" to="a3" priority="46">
        <lane id="a3o_0" index="0" speed="11.11" length="138.65" shape="158.25,161.35 158.25,300.00"/>
        <lane id="a3o_1" index="1" speed="11.11" length="138.65" shape="154.95,161.35 154.95,300.00"/>
        <lane id="a3o_2" index="2" speed="11.11" length="138.65" shape="151.65,161.35 151.65,300.00"/>
    </edge>
    <edge id="a4i" from="a4" to="a" priority="78">
        <lane id="a4i_0" index="0" speed="19.44" length="138.65" shape="0.00,141.75 138.65,141.75"/>
        <lane id="a4i_1" index="1" speed="19.44" length="138.65" shape="0.00,145.05 138.65,145.05"/>
        <lane id="a4i_2" index="2" speed="19.44" length="138.65" shape="0.00,148.35 138.65,148.35"/>
    </edge>
    <edge id="a4o" from="a" to="a4" priority="46">
        <lane id="a4o_0" index="0" speed="11.11" length="138.65" shape="138.65,158.25 0.00,158.25"/>
        <lane id="a4o_1" index="1" speed="11.11" length="138.65" shape="138.65,154.95 0.00,154.95"/>
        <lane id="a4o_2" index="2" speed="11.11" length="138.65" shape="138.65,151.65 0.00,151.65"/>
    </edge>
    <edge id="b1i" from="b1" to="b" priority="78">
        <lane id="b1i_0" index="0" speed="19.44" length="138.65" shape="658.25,0.00 658.25,138.65"/>
        <lane id="b1i_1" index="1" speed="19.44" length="138.65" shape="654.95,0.00 654.95,138.65"/>
        <lane id="b1i_2" index="2" speed="19.44" length="138.65" shape="651.65,0.00 651.65,138.65"/>
    </edge>
    <edge id="b1o" from="b" to="b1" priority="46">
        <lane id="b1o_0" index="0" speed="11.11" length="138.65" shape="641.75,138.65 641.75,0.00"/>
        <lane id="b1o_1" index="1" speed="11.11" length="138.65" shape="645.05,138.65 645.05,0.00"/>
        <lane id="b1o_2" index="2" speed="11.11" length="138.65" shape="648.35,138.65 648.35,0.00"/>
    </edge>
    <edge id="b2i" from="b2" to="b" priority="78">
        <lane id="b2i_0" index="0" speed="19.44" length="138.65" shape="800.00,158.25 661.35,158.25"/>
        <lane id="b2i_1" index="1" speed="19.44" length="138.65" shape="800.00,154.95 661.35,154.95"/>
        <lane id="b2i_2" index="2" speed="19.44" length="138.65" shape="800.00,151.65 661.35,151.65"/>
    </edge>
    <edge id="b2o" from="b" to="b2" priority="46">
        <lane id="b2o_0" index="0" speed="11.11" length="138.65" shape="661.35,141.75 800.00,141.75"/>
        <lane id="b2o_1" index="1" speed="11.11" length="138.65" shape="661.35,145.05 800.00,145.05"/>
        <lane id="b2o_2" index="2" speed="11.11" length="138.65" shape="661.35,148.35 800.00,148.35"/>
    </edge>
    <edge id="b3i" from="b3" to="b" priority="78">
        <lane id="b3i_0" index="0" speed="19.44" length="138.65" shape="641.75,300.00 641.75,161.35"/>
        <lane id="b3i_1" index="1" speed="19.44" length="138.65" shape="645.05,300.00 645.05,161.35"/>
        <lane id="b3i_2" index="2" speed="19.44" length="138.65" shape="648.35,300.00 648.35,161.35"/>
    </edge>
    <edge id="b3o" from="b" to="b3" priority="46">
        <lane id="b3o_0" index="0" speed="11.11" length="138.65" shape="658.25,161.35 658.25,300.00"/>
        <lane id="b3o_1" index="1" speed="11.11" length="138.65" shape="654.95,161.35 654.95,300.00"/>
        <lane id="b3o_2" index="2" speed="11.11" length="138.65" shape="651.65,161.35 651.65,300.00"/>
    </edge>
    <edge id="b4i" from="b4" to="b" priority="78">
        <lane id="b4i_0" index="0" speed="19.44" length="138.65" shape="500.00,141.75 638.65,141.75"/>
        <lane id="b4i_1" index="1" speed="19.44" length="138.65" shape="500.00,145.05 638.65,145.05"/>
        <lane id="b4i_2" index="2" speed="19.44" length="138.65" shape="500.00,148.35 638.65,148.35"/>
    </edge>
    <edge id="b4o" from="b" to="b4" priority="46">
        <lane id="b4o_0" index="0" speed="11.11" length="138.65" shape="638.65,158.25 500.00,158.25"/>
        <lane id="b4o_1" index="1" speed="11.11" length="138.65" shape="638.65,154.95 500.00,154.95"/>
        <lane id="b4o_2" index="2" speed="11.11" length="138.65" shape="638.65,151.65 500.00,151.65"/>
    </edge>
    <edge id="c1i" from="c1" to="c" priority="78">
        <lane id="c1i_0" index="0" speed="19.44" length="138.65" shape="658.25,500.00 658.25,638.65"/>
        <lane id="c1i_1" index="1" speed="19.44" length="138.65" shape="654.95,500.00 654.95,638.65"/>
        <lane id="c1i_2" index="2" speed="19.44" length="138.65" shape="651.65,500.00 651.65,638.65"/>
    </edge>
    <edge id="c1o" from="c" to="c1" priority="46">
        <lane id="c1o_0" index="0" speed="11.11" length="138.65" shape="641.75,638.65 641.75,500.00"/>
        <lane id="c1o_1" index="1" speed="11.11" length="138.65" shape="645.05,638.65 645.05,500.00"/>
        <lane id="c1o_2" index="2" speed="11.11" length="138.65" shape="648.35,638.65 648.35,500.00"/>
    </edge>
    <edge id="c2i" from="c2" to="c" priority="78">
        <lane id="c2i_0" index="0" speed="19.44" length="138.65" shape="800.00,658.25 661.35,658.25"/>
        <lane id="c2i_1" index="1" speed="19.44" length="138.65" shape="800.00,654.95 661.35,654.95"/>
        <lane id="c2i_2" index="2" speed="19.44" length="138.65" shape="800.00,651.65 661.35,651.65"/>
    </edge>
    <edge id="c2o" from="c" to="c2" priority="46">
        <lane id="c2o_0" index="0" speed="11.11" length="138.65" shape="661.35,641.75 800.00,641.75"/>
        <lane id="c2o_1" index="1" speed="11.11" length="138.65" shape="661.35,645.05 800.00,645.05"/>
        <lane id="c2o_2" index="2" speed="11.11" length="138.65" shape="661.35,648.35 800.00,648.35"/>
    </edge>
    <edge id="c3i" from="c3" to="c" priority="78">
        <lane id="c3i_0" index="0" speed="19.44" length="138.65" shape="641.75,800.00 641.75,661.35"/>
        <lane id="c3i_1" index="1" speed="19.44" length="138.65" shape="645.05,800.00 645.05,661.35"/>
        <lane id="c3i_2" index="2" speed="19.44" length="138.65" shape="648.35,800.00 648.35,661.35"/>
    </edge>
    <edge id="c3o" from="c" to="c3" priority="46">
        <lane id="c3o_0" index="0" speed="11.11" length="138.65" shape="658.25,661.35 658.25,800.00"/>
        <lane id="c3o_1" index="1" speed="11.11" length="138.65" shape="654.95,661.35 654.95,800.00"/>
        <lane id="c3o_2" index="2" speed="11.11" length="138.65" shape="651.65,661.35 651.65,800.00"/>
    </edge>
    <edge id="c4i" from="c4" to="c" priority="78">
        <lane id="c4i_0" index="0" speed="19.44" length="138.65" shape="500.00,641.75 638.65,641.75"/>
        <lane id="c4i_1" index="1" speed="19.44" length="138.65" shape="500.00,645.05 638.65,645.05"/>
        <lane id="c4i_2" index="2" speed="19.44" length="138.65" shape="500.00,648.35 638.65,648.35"/>
    </edge>
    <edge id="c4o" from="c" to="c4" priority="46">
        <lane id="c4o_0" index="0" speed="11.11" length="138.65" shape="638.65,658.25 500.00,658.25"/>
        <lane id="c4o_1" index="1" speed="11.11" length="138.65" shape="638.65,654.95 500.00,654.95"/>