<?xml version="1.0" encoding="iso-8859-1"?>
<connections xmlns:xsi="http://www.w3.org/2001/XMLSchema-instance" xsi:noNamespaceSchemaLocation="http://sumo.dlr.de/xsd/connections_file.xsd">
 
    <connection from="a1i" to="a2o" fromLane="0" toLane="0" />
    <connection from="a2i" to="a3o" fromLane="0" toLane="0" />
    <connection from="a3i" to="a4o" fromLane="0" toLane="0" />
    <connection from="a4i" to="a1o" fromLane="0" toLane="0" />
    <!--above are 001 intersection's connections  RIGHT TURN   -->
	<connection from="a1i" to="a3o" fromLane="1" toLane="1" />
	<connection from="a2i" to="a4o" fromLane="1" toLane="1" />
	<connection from="a3i" to="a1o" fromLane="1" toLane="1" />
	<connection from="a4i" to="a2o" fromLane="1" toLane="1" />
    <!--above are 001 intersection's connections  STRAIGHT     -->
    <connection from="a1i" to="a4o" fromLane="2" toLane="2" />
    <connection from="a2i" to="a1o" fromLane="2" toLane="2" />
    <connection from="a3i" to="a2o" fromLane="2" toLane="2" />
    <connection from="a4i" to="a3o" fromLane="2" toLane="2" />
    <!--above are 001 intersection's connections  LEFT TURN    -->
    <!--*********************ONE INTERSECTION**************************   -->
   
    <connection from="b1i" to="b2o" fromLane="0" toLane="0" />
    <connection from="b2i" to="b3o" fromLane="0" toLane="0" />
    <connection from="b3i" to="b4o" fromLane="0" toLane="0" />
    <connection from="b4i" to="b1o" fromLane="0" toLane="0" />
    <!--above are 001 intersection's connections  RIGHT TURN   -->
    <connection from="b1i" to="b3o" fromLane="1" toLane="1" />
    <connection from="b2i" to="b4o" fromLane="1" toLane="1" />
    <connection from="b3i" to="b1o" fromLane="1" toLane="1" />
    <connection from="b4i" to="b2o" fromLane="1" toLane="1" />
    <!--above are 001 intersection's connections  STRAIGHT     -->
    <connection from="b1i" to="b4o" fromLane="2" toLane="2" />
    <connection from="b2i" to="b1o" fromLane="2" toLane="2" />
    <connection from="b3i" to="b2o" fromLane="2" toLane="2" />
    <connection from="b4i" to="b3o" fromLane="2" toLane="2" />
    <!--above are 001 intersection's connections  LEFT TURN    -->
    <!--*********************ONE INTERSECTION**************************   -->

    <connection from="c1i" to="c2o" fromLane="0" toLane="0" />
    <connection from="c2i" to="c3o" fromLane="0" toLane="0" />
    <connection from="c3i" to="c4o" fromLane="0" toLane="0" />
    <connection from="c4i" to="c1o" fromLane="0" toLane="0" />
    <!--above are 001 intersection's connections  RIGHT TURN   -->
    <connection from="c1i" to="c3o" fromLane="1" toLane="1" />
    <connection from="c2i" to="c4o" fromLane="1" toLane="1" />
    <connection from="c3i" to="c1o" fromLane="1" toLane="1" />
    <connection from="c4i" to="c2o" fromLane="1" toLane="1" />
    <!--above are 001 intersection's connections  STRAIGHT     -->
    <connection from="c1i" to="c4o" fromLane="2" toLane="2" />
    <connection from="c2i" to="c1o" fromLane="2" toLane="2" />
    <connection from="c3i" to="c2o" fromLane="2" toLane="2" />
    <connection from="c4i" to="c3o" fromLane="2" toLane="2" />
    <!--above are 001 intersection's connections  LEFT TURN    -->
    <!--*********************ONE cINTERSECTION**************************   -->

    <connection from="d1i" to="d2o" fromLane="0" toLane="0" />
    <connection from="d2i" to="d3o" fromLane="0" toLane="0" />
    <connection from="d3i" to="d4o" fromLane="0" toLane="0" />
    <connection from="d4i" to="d1o" fromLane="0" toLane="0" />
    <!--above are 001 intersection's connections  RIGHT TURN   -->
    <connection from="d1i" to="d3o" fromLane="1" toLane="1" />
    <connection from="d2i" to="d4o" fromLane="1" toLane="1" />
    <connection from="d3i" to="d1o" fromLane="1" toLane="1" />
    <connection from="d4i" to="d2o" fromLane="1" toLane="1" />
    <!--above are 001 intersection's connections  STRAIGHT     -->
    <connection from="d1i" to="d4o" fromLane="2" toLane="2" />
    <connection from="d2i" to="d1o" fromLane="2" toLane="2" />
    <connection from="d3i" to="d2o" fromLane="2" toLane="2" />
    <connection from="d4i" to="d3o" fromLane="2" toLane="2" />
    <!--above are 001 intersection's connections  LEFT TURN    -->
    <!--*********************ONE INTERSECTION**************************   -->

    <connection from="a2o" to="0010" fromLane="0" toLane ="0" />
    <connection from="a2o" to="0010" fromLane="1" toLane ="1" />
    <connection from="a2o" to="0010" fromLane="2" toLane ="2" />
    <connection from="0010" to="b4i" fromLane="0" toLane ="0" />
    <connection from="0010" to="b4i" fromLane="1" toLane ="1" />
    <connection from="0010" to="b4i" fromLane="2" toLane ="2" />

    <connection from="b4o" to="1000" fromLane="0" toLane ="0" />
    <connection from="b4o" to="1000" fromLane="1" toLane ="1" />
    <connection from="b4o" to="1000" fromLane="2" toLane ="2" />
    <connection from="1000" to="a2i" fromLane="0" toLane ="0" />
    <connection from="1000" to="a2i" fromLane="1" toLane ="1" />
    <connection from="1000" to="a2i" fromLane="2" toLane ="2" />

    <connection from="d2o" to="0111" fromLane="0" toLane ="0" />
    <connection from="d2o" to="0111" fromLane="1" toLane ="1" />
    <connection from="d2o" to="0111" fromLane="2" toLane ="2" />
    <connection from="0111" to="c4i" fromLane="0" toLane ="0" />
    <connection from="0111" to="c4i" fromLane="1" toLane ="1" />
    <connection from="0111" to="c4i" fromLane="2" toLane ="2" />

    <connection from="c4o" to="1101" fromLane="0" toLane ="0" />
    <connection from="c4o" to="1101" fromLane="1" toLane ="1" />
    <connection from="c4o" to="1101" fromLane="2" toLane ="2" />
    <connection from="1101" to="d2i" fromLane="0" toLane ="0" />
    <connection from="1101" to="d2i" fromLane="1" toLane ="1" />
    <connection from="1101" to="d2i" fromLane="2" toLane ="2" />

    <connection from="b3o" to="1011" fromLane="0" toLane ="0" />
    <connection from="b3o" to="1011" fromLane="1" toLane ="1" />
    <connection from="b3o" to="1011" fromLane="2" toLane ="2" />
    <connection from="1011" to="c1i" fromLane="0" toLane ="0" />
    <connection from="1011" to="c1i" fromLane="1" toLane ="1" />
    <connection from="1011" to="c1i" fromLane="2" toLane ="2" />

    <connection from="c1o" to="1110" fromLane="0" toLane ="0" />
    <connection from="c1o" to="1110" fromLane="1" toLane ="1" />
    <connection from="c1o" to="1110" fromLane="2" toLane ="2" />
    <connection from="1110" to="b3i" fromLane="0" toLane ="0" />
    <connection from="1110" to="b3i" fromLane="1" toLane ="1" />
    <connection from="1110" to="b3i" fromLane="2" toLane ="2" />

    <connection from="a3o" to="0001" fromLane="0" toLane ="0" />
    <connection from="a3o" to="0001" fromLane="1" toLane ="1" />
    <connection from="a3o" to="0001" fromLane="2" toLane ="2" />
    <connection from="0001" to="d1i" fromLane="0" toLane ="0" />
    <connection from="0001" to="d1i" fromLane="1" toLane ="1" />
    <connection from="0001" to="d1i" fromLane="2" toLane ="2" />

    <connection from="d1o" to="0100" fromLane="0" toLane ="0" />
    <connection from="d1o" to="0100" fromLane="1" toLane ="1" />
    <connection from="d1o" to="0100" fromLane="2" toLane ="2" />
    <connection from="0100" to="a3i" fromLane="0" toLane ="0" />
    <connection from="0100" to="a3i" fromLane="1" toLane ="1" />
    <connection from="0100" to="a3i" fromLane="2" toLane ="2" />
</connections>