<?xml version="1.0" encoding="UTF-8"?>

<!-- generated on 12/05/18 21:37:34 by SUMO jtrrouter Version 0.32.0
<?xml version="1.0" encoding="UTF-8"?>

<configuration xmlns:xsi="http://www.w3.org/2001/XMLSchema-instance" xsi:noNamespaceSchemaLocation="http://sumo.dlr.de/xsd/jtrrouterConfiguration.xsd">

    <input>
        <net-file value="intersection.net.xml"/>
        <route-files value="flowdef.rou.xml"/>
        <turn-ratio-files value="intersection.turndefs.xml"/>
    </input>

    <output>
        <output-file value="intersectiontest.rou.xml"/>
    </output>

    <processing>
        <accept-all-destinations value="true"/>
    </processing>

    <random_number>
        <random value="true"/>
    </random_number>

</configuration>
-->

<routes xmlns:xsi="http://www.w3.org/2001/XMLSchema-instance" xsi:noNamespaceSchemaLocation="http://sumo.dlr.de/xsd/routes_file.xsd">
    <vType id="car" length="5.00" minGap="2.50" maxSpeed="20.00" guiShape="passenger" lcStrategic="1000000000" lcCooperative="1.0" lcAssertive="100" accel="2" decel="4.5" sigma="0.5"/>
    <vehicle id="a1i.0" type="car" depart="0.00">
        <route edges="a1i a4o"/>
    </vehicle>
    <vehicle id="a1i.1" type="car" depart="3.00">
        <route edges="a1i a3o"/>
    </vehicle>
    <vehicle id="a4i.0" type="car" depart="3.00">
        <route edges="a4i a1o"/>
    </vehicle>
    <vehicle id="a1i.2" type="car" depart="4.00">
        <route edges="a1i a3o"/>
    </vehicle>
    <vehicle id="a2i.0" type="car" depart="4.00">
        <route edges="a2i a3o"/>
    </vehicle>
    <vehicle id="a4i.1" type="car" depart="4.00">
        <route edges="a4i a2o"/>
    </vehicle>
    <vehicle id="a1i.3" type="car" depart="5.00">
        <route edges="a1i a3o"/>
    </vehicle>
    <vehicle id="a1i.4" type="car" depart="6.00">
        <route edges="a1i a4o"/>
    </vehicle>
    <vehicle id="a3i.0" type="car" depart="6.00">
        <route edges="a3i a4o"/>
    </vehicle>
    <vehicle id="a2i.1" type="car" depart="7.00">
        <route edges="a2i a1o"/>
    </vehicle>
    <vehicle id="a4i.2" type="car" depart="7.00">
        <route edges="a4i a1o"/>
    </vehicle>
    <vehicle id="a2i.2" type="car" depart="8.00">
        <route edges="a2i a1o"/>
    </vehicle>
    <vehicle id="a1i.5" type="car" depart="11.00">
        <route edges="a1i a2o"/>
    </vehicle>
    <vehicle id="a1i.6" type="car" depart="14.00">
        <route edges="a1i a4o"/>
    </vehicle>
    <vehicle id="a2i.3" type="car" depart="17.00">
        <route edges="a2i a4o"/>
    </vehicle>
    <vehicle id="a3i.1" type="car" depart="17.00">
        <route edges="a3i a2o"/>
    </vehicle>
    <vehicle id="a4i.3" type="car" depart="17.00">
        <route edges="a4i a2o"/>
    </vehicle>
    <vehicle id="a2i.4" type="car" depart="18.00">
        <route edges="a2i a3o"/>
    </vehicle>
    <vehicle id="a3i.2" type="car" depart="18.00">
        <route edges="a3i a1o"/>
    </vehicle>
    <vehicle id="a2i.5" type="car" depart="19.00">
        <route edges="a2i a4o"/>
    </vehicle>
    <vehicle id="a1i.7" type="car" depart="20.00">
        <route edges="a1i a2o"/>
    </vehicle>
    <vehicle id="a4i.4" type="car" depart="20.00">
        <route edges="a4i a2o"/>
    </vehicle>
    <vehicle id="a1i.8" type="car" depart="21.00">
        <route edges="a1i a4o"/>
    </vehicle>
    <vehicle id="a3i.3" type="car" depart="21.00">
        <route edges="a3i a2o"/>
    </vehicle>
    <vehicle id="a1i.9" type="car" depart="22.00">
        <route edges="a1i a3o"/>
    </vehicle>
    <vehicle id="a3i.4" type="car" depart="22.00">
        <route edges="a3i a2o"/>
    </vehicle>
    <vehicle id="a2i.6" type="car" depart="23.00">
        <route edges="a2i a3o"/>
    </vehicle>
    <vehicle id="a4i.5" type="car" depart="23.00">
        <route edges="a4i a1o"/>
    </vehicle>
    <vehicle id="a1i.10" type="car" depart="24.00">
        <route edges="a1i a3o"/>
    </vehicle>
    <vehicle id="a3i.5" type="car" depart="25.00">
        <route edges="a3i a1o"/>
    </vehicle>
    <vehicle id="a4i.6" type="car" depart="25.00">
        <route edges="a4i a2o"/>
    </vehicle>
    <vehicle id="a4i.7" type="car" depart="27.00">
        <route edges="a4i a1o"/>
    </vehicle>
    <vehicle id="a1i.11" type="car" depart="28.00">
        <route edges="a1i a3o"/>
    </vehicle>
    <vehicle id="a2i.7" type="car" depart="28.00">
        <route edges="a2i a4o"/>
    </vehicle>
    <vehicle id="a1i.12" type="car" depart="29.00">
        <route edges="a1i a3o"/>
    </vehicle>
    <vehicle id="a2i.8" type="car" depart="31.00">
        <route edges="a2i a3o"/>
    </vehicle>
    <vehicle id="a4i.8" type="car" depart="31.00">
        <route edges="a4i a2o"/>
    </vehicle>
    <vehicle id="a1i.13" type="car" depart="32.00">
        <route edges="a1i a3o"/>
    </vehicle>
    <vehicle id="a2i.9" type="car" depart="32.00">
        <route edges="a2i a4o"/>
    </vehicle>
    <vehicle id="a4i.9" type="car" depart="33.00">
        <route edges="a4i a2o"/>
    </vehicle>
    <vehicle id="a1i.14" type="car" depart="35.00">
        <route edges="a1i a4o"/>
    </vehicle>
    <vehicle id="a1i.15" type="car" depart="36.00">
        <route edges="a1i a4o"/>
    </vehicle>
    <vehicle id="a1i.16" type="car" depart="37.00">
        <route edges="a1i a3o"/>
    </vehicle>
    <vehicle id="a2i.10" type="car" depart="37.00">
        <route edges="a2i a3o"/>
    </vehicle>
    <vehicle id="a4i.10" type="car" depart="37.00">
        <route edges="a4i a1o"/>
    </vehicle>
    <vehicle id="a2i.11" type="car" depart="38.00">
        <route edges="a2i a3o"/>
    </vehicle>
    <vehicle id="a1i.17" type="car" depart="45.00">
        <route edges="a1i a3o"/>
    </vehicle>
    <vehicle id="a4i.11" type="car" depart="45.00">
        <route edges="a4i a3o"/>
    </vehicle>
    <vehicle id="a2i.12" type="car" depart="46.00">
        <route edges="a2i a4o"/>
    </vehicle>
    <vehicle id="a4i.12" type="car" depart="46.00">
        <route edges="a4i a2o"/>
    </vehicle>
    <vehicle id="a3i.6" type="car" depart="47.00">
        <route edges="a3i a4o"/>
    </vehicle>
    <vehicle id="a1i.18" type="car" depart="48.00">
        <route edges="a1i a4o"/>
    </vehicle>
    <vehicle id="a3i.7" type="car" depart="49.00">
        <route edges="a3i a1o"/>
    </vehicle>
    <vehicle id="a3i.8" type="car" depart="50.00">
        <route edges="a3i a4o"/>
    </vehicle>
    <vehicle id="a1i.19" type="car" depart="51.00">
        <route edges="a1i a2o"/>
    </vehicle>
    <vehicle id="a3i.9" type="car" depart="51.00">
        <route edges="a3i a4o"/>
    </vehicle>
    <vehicle id="a1i.20" type="car" depart="53.00">
        <route edges="a1i a4o"/>
    </vehicle>
    <vehicle id="a2i.13" type="car" depart="54.00">
        <route edges="a2i a1o"/>
    </vehicle>
    <vehicle id="a4i.13" type="car" depart="54.00">
        <route edges="a4i a2o"/>
    </vehicle>
    <vehicle id="a1i.21" type="car" depart="55.00">
        <route edges="a1i a3o"/>
    </vehicle>
    <vehicle id="a4i.14" type="car" depart="58.00">
        <route edges="a4i a3o"/>
    </vehicle>
    <vehicle id="a2i.14" type="car" depart="59.00">
        <route edges="a2i a1o"/>
    </vehicle>
    <vehicle id="a3i.10" type="car" depart="59.00">
        <route edges="a3i a4o"/>
    </vehicle>
    <vehicle id="a4i.15" type="car" depart="60.00">
        <route edges="a4i a1o"/>
    </vehicle>
    <vehicle id="a1i.22" type="car" depart="62.00">
        <route edges="a1i a3o"/>
    </vehicle>
    <vehicle id="a2i.15" type="car" depart="62.00">
        <route edges="a2i a3o"/>
    </vehicle>
    <vehicle id="a3i.11" type="car" depart="62.00">
        <route edges="a3i a1o"/>
    </vehicle>
    <vehicle id="a3i.12" type="car" depart="63.00">
        <route edges="a3i a1o"/>
    </vehicle>
    <vehicle id="a2i.16" type="car" depart="64.00">
        <route edges="a2i a3o"/>
    </vehicle>
    <vehicle id="a1i.23" type="car" depart="65.00">
        <route edges="a1i a2o"/>
    </vehicle>
    <vehicle id="a3i.13" type="car" depart="65.00">
        <route edges="a3i a1o"/>
    </vehicle>
    <vehicle id="a4i.16" type="car" depart="67.00">
        <route edges="a4i a2o"/>
    </vehicle>
    <vehicle id="a4i.17" type="car" depart="68.00">
        <route edges="a4i a1o"/>
    </vehicle>
    <vehicle id="a1i.24" type="car" depart="69.00">
        <route edges="a1i a4o"/>
    </vehicle>
    <vehicle id="a2i.17" type="car" depart="69.00">
        <route edges="a2i a4o"/>
    </vehicle>
    <vehicle id="a3i.14" type="car" depart="69.00">
        <route edges="a3i a2o"/>
    </vehicle>
    <vehicle id="a4i.18" type="car" depart="70.00">
        <route edges="a4i a3o"/>
    </vehicle>
    <vehicle id="a4i.19" type="car" depart="71.00">
        <route edges="a4i a1o"/>
    </vehicle>
    <vehicle id="a1i.25" type="car" depart="72.00">
        <route edges="a1i a4o"/>
    </vehicle>
    <vehicle id="a4i.20" type="car" depart="72.00">
        <route edges="a4i a1o"/>
    </vehicle>
    <vehicle id="a2i.18" type="car" depart="73.00">
        <route edges="a2i a4o"/>
    </vehicle>
    <vehicle id="a1i.26" type="car" depart="74.00">
        <route edges="a1i a2o"/>
    </vehicle>
    <vehicle id="a4i.21" type="car" depart="74.00">
        <route edges="a4i a1o"/>
    </vehicle>
    <vehicle id="a3i.15" type="car" depart="75.00">
        <route edges="a3i a2o"/>
    </vehicle>
    <vehicle id="a1i.27" type="car" depart="77.00">
        <route edges="a1i a2o"/>
    </vehicle>
    <vehicle id="a1i.28" type="car" depart="79.00">
        <route edges="a1i a2o"/>
    </vehicle>
    <vehicle id="a2i.19" type="car" depart="81.00">
        <route edges="a2i a1o"/>
    </vehicle>
    <vehicle id="a2i.20" type="car" depart="82.00">
        <route edges="a2i a3o"/>
    </vehicle>
    <vehicle id="a4i.22" type="car" depart="82.00">
        <route edges="a4i a2o"/>
    </vehicle>
    <vehicle id="a4i.23" type="car" depart="83.00">
        <route edges="a4i a2o"/>
    </vehicle>
    <vehicle id="a2i.21" type="car" depart="85.00">
        <route edges="a2i a4o"/>
    </vehicle>
    <vehicle id="a3i.16" type="car" depart="87.00">
        <route edges="a3i a4o"/>
    </vehicle>
    <vehicle id="a2i.22" type="car" depart="88.00">
        <route edges="a2i a4o"/>
    </vehicle>
    <vehicle id="a2i.23" type="car" depart="90.00">
        <route edges="a2i a4o"/>
    </vehicle>
    <vehicle id="a4i.24" type="car" depart="90.00">
        <route edges="a4i a1o"/>
    </vehicle>
    <vehicle id="a2i.24" type="car" depart="91.00">
        <route edges="a2i a4o"/>
    </vehicle>
    <vehicle id="a1i.29" type="car" depart="92.00">
        <route edges="a1i a3o"/>
    </vehicle>
    <vehicle id="a2i.25" type="car" depart="92.00">
        <route edges="a2i a1o"/>
    </vehicle>
    <vehicle id="a4i.25" type="car" depart="93.00">
        <route edges="a4i a2o"/>
    </vehicle>
    <vehicle id="a1i.30" type="car" depart="94.00">
        <route edges="a1i a4o"/>
    </vehicle>
    <vehicle id="a1i.31" type="car" depart="95.00">
        <route edges="a1i a2o"/>
    </vehicle>
    <vehicle id="a2i.26" type="car" depart="95.00">
        <route edges="a2i a1o"/>
    </vehicle>
    <vehicle id="a4i.26" type="car" depart="95.00">
        <route edges="a4i a3o"/>
    </vehicle>
    <vehicle id="a1i.32" type="car" depart="96.00">
        <route edges="a1i a3o"/>
    </vehicle>
    <vehicle id="a3i.17" type="car" depart="97.00">
        <route edges="a3i a1o"/>
    </vehicle>
    <vehicle id="a4i.27" type="car" depart="97.00">
        <route edges="a4i a3o"/>
    </vehicle>
    <vehicle id="a4i.28" type="car" depart="101.00">
        <route edges="a4i a2o"/>
    </vehicle>
    <vehicle id="a2i.27" type="car" depart="102.00">
        <route edges="a2i a3o"/>
    </vehicle>
    <vehicle id="a3i.18" type="car" depart="103.00">
        <route edges="a3i a1o"/>
    </vehicle>
    <vehicle id="a4i.29" type="car" depart="104.00">
        <route edges="a4i a3o"/>
    </vehicle>
    <vehicle id="a2i.28" type="car" depart="107.00">
        <route edges="a2i a3o"/>
    </vehicle>
    <vehicle id="a3i.19" type="car" depart="107.00">
        <route edges="a3i a1o"/>
    </vehicle>
    <vehicle id="a4i.30" type="car" depart="107.00">
        <route edges="a4i a2o"/>
    </vehicle>
    <vehicle id="a2i.29" type="car" depart="110.00">
        <route edges="a2i a3o"/>
    </vehicle>
    <vehicle id="a3i.20" type="car" depart="110.00">
        <route edges="a3i a4o"/>
    </vehicle>
    <vehicle id="a1i.33" type="car" depart="111.00">
        <route edges="a1i a2o"/>
    </vehicle>
    <vehicle id="a2i.30" type="car" depart="111.00">
        <route edges="a2i a3o"/>
    </vehicle>
    <vehicle id="a2i.31" type="car" depart="112.00">
        <route edges="a2i a1o"/>
    </vehicle>
    <vehicle id="a4i.31" type="car" depart="112.00">
        <route edges="a4i a3o"/>
    </vehicle>
    <vehicle id="a4i.32" type="car" depart="113.00">
        <route edges="a4i a3o"/>
    </vehicle>
    <vehicle id="a1i.34" type="car" depart="114.00">
        <route edges="a1i a2o"/>
    </vehicle>
    <vehicle id="a4i.33" type="car" depart="114.00">
        <route edges="a4i a2o"/>
    </vehicle>
    <vehicle id="a2i.32" type="car" depart="115.00">
        <route edges="a2i a3o"/>
    </vehicle>
    <vehicle id="a2i.33" type="car" depart="119.00">
        <route edges="a2i a3o"/>
    </vehicle>
    <vehicle id="a3i.21" type="car" depart="119.00">
        <route edges="a3i a4o"/>
    </vehicle>
    <vehicle id="a4i.34" type="car" depart="119.00">
        <route edges="a4i a3o"/>
    </vehicle>
    <vehicle id="a4i.35" type="car" depart="120.00">
        <route edges="a4i a2o"/>
    </vehicle>
    <vehicle id="a3i.22" type="car" depart="121.00">
        <route edges="a3i a2o"/>
    </vehicle>
    <vehicle id="a1i.35" type="car" depart="122.00">
        <route edges="a1i a4o"/>
    </vehicle>
    <vehicle id="a2i.34" type="car" depart="122.00">
        <route edges="a2i a3o"/>
    </vehicle>
    <vehicle id="a2i.35" type="car" depart="123.00">
        <route edges="a2i a3o"/>
    </vehicle>
    <vehicle id="a4i.36" type="car" depart="123.00">
        <route edges="a4i a1o"/>
    </vehicle>
    <vehicle id="a2i.36" type="car" depart="124.00">
        <route edges="a2i a4o"/>
    </vehicle>
    <vehicle id="a1i.36" type="car" depart="125.00">
        <route edges="a1i a4o"/>
    </vehicle>
    <vehicle id="a2i.37" type="car" depart="126.00">
        <route edges="a2i a4o"/>
    </vehicle>
    <vehicle id="a3i.23" type="car" depart="127.00">
        <route edges="a3i a2o"/>
    </vehicle>
    <vehicle id="a4i.37" type="car" depart="127.00">
        <route edges="a4i a2o"/>
    </vehicle>
    <vehicle id="a1i.37" type="car" depart="128.00">
        <route edges="a1i a3o"/>
    </vehicle>
    <vehicle id="a3i.24" type="car" depart="129.00">
        <route edges="a3i a1o"/>
    </vehicle>
    <vehicle id="a3i.25" type="car" depart="131.00">
        <route edges="a3i a1o"/>
    </vehicle>
    <vehicle id="a4i.38" type="car" depart="132.00">
        <route edges="a4i a2o"/>
    </vehicle>
    <vehicle id="a1i.38" type="car" depart="135.00">
        <route edges="a1i a4o"/>
    </vehicle>
    <vehicle id="a2i.38" type="car" depart="135.00">
        <route edges="a2i a4o"/>
    </vehicle>
    <vehicle id="a2i.39" type="car" depart="138.00">
        <route edges="a2i a4o"/>
    </vehicle>
    <vehicle id="a3i.26" type="car" depart="139.00">
        <route edges="a3i a1o"/>
    </vehicle>
    <vehicle id="a1i.39" type="car" depart="140.00">
        <route edges="a1i a4o"/>
    </vehicle>
    <vehicle id="a2i.40" type="car" depart="140.00">
        <route edges="a2i a1o"/>
    </vehicle>
    <vehicle id="a2i.41" type="car" depart="145.00">
        <route edges="a2i a1o"/>
    </vehicle>
    <vehicle id="a3i.27" type="car" depart="145.00">
        <route edges="a3i a1o"/>
    </vehicle>
    <vehicle id="a4i.39" type="car" depart="146.00">
        <route edges="a4i a2o"/>
    </vehicle>
    <vehicle id="a4i.40" type="car" depart="147.00">
        <route edges="a4i a1o"/>
    </vehicle>
    <vehicle id="a1i.40" type="car" depart="148.00">
        <route edges="a1i a2o"/>
    </vehicle>
    <vehicle id="a1i.41" type="car" depart="150.00">
        <route edges="a1i a2o"/>
    </vehicle>
    <vehicle id="a2i.42" type="car" depart="150.00">
        <route edges="a2i a4o"/>
    </vehicle>
    <vehicle id="a1i.42" type="car" depart="152.00">
        <route edges="a1i a4o"/>
    </vehicle>
    <vehicle id="a2i.43" type="car" depart="153.00">
        <route edges="a2i a4o"/>
    </vehicle>
    <vehicle id="a1i.43" type="car" depart="154.00">
        <route edges="a1i a3o"/>
    </vehicle>
    <vehicle id="a1i.44" type="car" depart="155.00">
        <route edges="a1i a4o"/>
    </vehicle>
    <vehicle id="a1i.45" type="car" depart="157.00">
        <route edges="a1i a3o"/>
    </vehicle>
    <vehicle id="a3i.28" type="car" depart="160.00">
        <route edges="a3i a1o"/>
    </vehicle>
    <vehicle id="a4i.41" type="car" depart="160.00">
        <route edges="a4i a1o"/>
    </vehicle>
    <vehicle id="a4i.42" type="car" depart="163.00">
        <route edges="a4i a3o"/>
    </vehicle>
    <vehicle id="a2i.44" type="car" depart="164.00">
        <route edges="a2i a1o"/>
    </vehicle>
    <vehicle id="a3i.29" type="car" depart="164.00">
        <route edges="a3i a2o"/>
    </vehicle>
    <vehicle id="a4i.43" type="car" depart="164.00">
        <route edges="a4i a1o"/>
    </vehicle>
    <vehicle id="a4i.44" type="car" depart="166.00">
        <route edges="a4i a3o"/>
    </vehicle>
    <vehicle id="a2i.45" type="car" depart="168.00">
        <route edges="a2i a4o"/>
    </vehicle>
    <vehicle id="a1i.46" type="car" depart="169.00">
        <route edges="a1i a4o"/>
    </vehicle>
    <vehicle id="a4i.45" type="car" depart="169.00">
        <route edges="a4i a1o"/>
    </vehicle>
    <vehicle id="a4i.46" type="car" depart="170.00">
        <route edges="a4i a1o"/>
    </vehicle>
    <vehicle id="a3i.30" type="car" depart="171.00">
        <route edges="a3i a1o"/>
    </vehicle>
    <vehicle id="a2i.46" type="car" depart="172.00">
        <route edges="a2i a4o"/>
    </vehicle>
    <vehicle id="a1i.47" type="car" depart="173.00">
        <route edges="a1i a2o"/>
    </vehicle>
    <vehicle id="a1i.48" type="car" depart="174.00">
        <route edges="a1i a4o"/>
    </vehicle>
    <vehicle id="a4i.47" type="car" depart="175.00">
        <route edges="a4i a3o"/>
    </vehicle>
    <vehicle id="a3i.31" type="car" depart="176.00">
        <route edges="a3i a2o"/>
    </vehicle>
    <vehicle id="a1i.49" type="car" depart="177.00">
        <route edges="a1i a2o"/>
    </vehicle>
    <vehicle id="a3i.32" type="car" depart="177.00">
        <route edges="a3i a1o"/>
    </vehicle>
    <vehicle id="a4i.48" type="car" depart="177.00">
        <route edges="a4i a2o"/>
    </vehicle>
    <vehicle id="a4i.49" type="car" depart="178.00">
        <route edges="a4i a2o"/>
    </vehicle>
    <vehicle id="a4i.50" type="car" depart="179.00">
        <route edges="a4i a2o"/>
    </vehicle>
    <vehicle id="a1i.50" type="car" depart="180.00">
        <route edges="a1i a4o"/>
    </vehicle>
    <vehicle id="a2i.47" type="car" depart="181.00">
        <route edges="a2i a4o"/>
    </vehicle>
    <vehicle id="a3i.33" type="car" depart="181.00">
        <route edges="a3i a1o"/>
    </vehicle>
    <vehicle id="a2i.48" type="car" depart="182.00">
        <route edges="a2i a4o"/>
    </vehicle>
    <vehicle id="a1i.51" type="car" depart="183.00">
        <route edges="a1i a4o"/>
    </vehicle>
    <vehicle id="a4i.51" type="car" depart="184.00">
        <route edges="a4i a1o"/>
    </vehicle>
    <vehicle id="a2i.49" type="car" depart="185.00">
        <route edges="a2i a1o"/>
    </vehicle>
    <vehicle id="a3i.34" type="car" depart="185.00">
        <route edges="a3i a2o"/>
    </vehicle>
    <vehicle id="a2i.50" type="car" depart="186.00">
        <route edges="a2i a1o"/>
    </vehicle>
    <vehicle id="a2i.51" type="car" depart="188.00">
        <route edges="a2i a3o"/>
    </vehicle>
    <vehicle id="a3i.35" type="car" depart="188.00">
        <route edges="a3i a4o"/>
    </vehicle>
    <vehicle id="a1i.52" type="car" depart="189.00">
        <route edges="a1i a3o"/>
    </vehicle>
    <vehicle id="a1i.53" type="car" depart="191.00">
        <route edges="a1i a3o"/>
    </vehicle>
    <vehicle id="a2i.52" type="car" depart="191.00">
        <route edges="a2i a3o"/>
    </vehicle>
    <vehicle id="a1i.54" type="car" depart="192.00">
        <route edges="a1i a2o"/>
    </vehicle>
    <vehicle id="a3i.36" type="car" depart="192.00">
        <route edges="a3i a1o"/>
    </vehicle>
    <vehicle id="a1i.55" type="car" depart="194.00">
        <route edges="a1i a3o"/>
    </vehicle>
    <vehicle id="a3i.37" type="car" depart="195.00">
        <route edges="a3i a1o"/>
    </vehicle>
    <vehicle id="a1i.56" type="car" depart="197.00">
        <route edges="a1i a4o"/>
    </vehicle>
    <vehicle id="a4i.52" type="car" depart="197.00">
        <route edges="a4i a2o"/>
    </vehicle>
    <vehicle id="a1i.57" type="car" depart="198.00">
        <route edges="a1i a3o"/>
    </vehicle>
    <vehicle id="a1i.58" type="car" depart="200.00">
        <route edges="a1i a3o"/>
    </vehicle>
    <vehicle id="a3i.38" type="car" depart="200.00">
        <route edges="a3i a2o"/>
    </vehicle>
    <vehicle id="a4i.53" type="car" depart="200.00">
        <route edges="a4i a1o"/>
    </vehicle>
    <vehicle id="a2i.53" type="car" depart="201.00">
        <route edges="a2i a4o"/>
    </vehicle>
    <vehicle id="a3i.39" type="car" depart="202.00">
        <route edges="a3i a1o"/>
    </vehicle>
    <vehicle id="a2i.54" type="car" depart="205.00">
        <route edges="a2i a3o"/>
    </vehicle>
    <vehicle id="a3i.40" type="car" depart="206.00">
        <route edges="a3i a1o"/>
    </vehicle>
    <vehicle id="a4i.54" type="car" depart="207.00">
        <route edges="a4i a3o"/>
    </vehicle>
    <vehicle id="a3i.41" type="car" depart="208.00">
        <route edges="a3i a2o"/>
    </vehicle>
    <vehicle id="a1i.59" type="car" depart="210.00">
        <route edges="a1i a3o"/>
    </vehicle>
    <vehicle id="a2i.55" type="car" depart="211.00">
        <route edges="a2i a4o"/>
    </vehicle>
    <vehicle id="a3i.42" type="car" depart="213.00">
        <route edges="a3i a1o"/>
    </vehicle>
    <vehicle id="a3i.43" type="car" depart="214.00">
        <route edges="a3i a1o"/>
    </vehicle>
    <vehicle id="a4i.55" type="car" depart="217.00">
        <route edges="a4i a2o"/>
    </vehicle>
    <vehicle id="a2i.56" type="car" depart="218.00">
        <route edges="a2i a3o"/>
    </vehicle>
    <vehicle id="a4i.56" type="car" depart="218.00">
        <route edges="a4i a2o"/>
    </vehicle>
    <vehicle id="a2i.57" type="car" depart="219.00">
        <route edges="a2i a4o"/>
    </vehicle>
    <vehicle id="a1i.60" type="car" depart="222.00">
        <route edges="a1i a3o"/>
    </vehicle>
    <vehicle id="a2i.58" type="car" depart="222.00">
        <route edges="a2i a4o"/>
    </vehicle>
    <vehicle id="a3i.44" type="car" depart="223.00">
        <route edges="a3i a4o"/>
    </vehicle>
    <vehicle id="a1i.61" type="car" depart="224.00">
        <route edges="a1i a3o"/>
    </vehicle>
    <vehicle id="a2i.59" type="car" depart="225.00">
        <route edges="a2i a3o"/>
    </vehicle>
    <vehicle id="a3i.45" type="car" depart="227.00">
        <route edges="a3i a2o"/>
    </vehicle>
    <vehicle id="a1i.62" type="car" depart="229.00">
        <route edges="a1i a3o"/>
    </vehicle>
    <vehicle id="a1i.63" type="car" depart="232.00">
        <route edges="a1i a3o"/>
    </vehicle>
    <vehicle id="a3i.46" type="car" depart="232.00">
        <route edges="a3i a1o"/>
    </vehicle>
    <vehicle id="a1i.64" type="car" depart="234.00">
        <route edges="a1i a3o"/>
    </vehicle>
    <vehicle id="a3i.47" type="car" depart="236.00">
        <route edges="a3i a1o"/>
    </vehicle>
    <vehicle id="a2i.60" type="car" depart="237.00">
        <route edges="a2i a1o"/>
    </vehicle>
    <vehicle id="a3i.48" type="car" depart="237.00">
        <route edges="a3i a4o"/>
    </vehicle>
    <vehicle id="a1i.65" type="car" depart="240.00">
        <route edges="a1i a4o"/>
    </vehicle>
    <vehicle id="a1i.66" type="car" depart="241.00">
        <route edges="a1i a2o"/>
    </vehicle>
    <vehicle id="a2i.61" type="car" depart="242.00">
        <route edges="a2i a3o"/>
    </vehicle>
    <vehicle id="a3i.49" type="car" depart="242.00">
        <route edges="a3i a1o"/>
    </vehicle>
    <vehicle id="a3i.50" type="car" depart="243.00">
        <route edges="a3i a1o"/>
    </vehicle>
    <vehicle id="a4i.57" type="car" depart="243.00">
        <route edges="a4i a3o"/>
    </vehicle>
    <vehicle id="a4i.58" type="car" depart="245.00">
        <route edges="a4i a2o"/>
    </vehicle>
    <vehicle id="a2i.62" type="car" depart="246.00">
        <route edges="a2i a4o"/>
    </vehicle>
    <vehicle id="a3i.51" type="car" depart="246.00">
        <route edges="a3i a4o"/>
    </vehicle>
    <vehicle id="a4i.59" type="car" depart="246.00">
        <route edges="a4i a2o"/>
    </vehicle>
    <vehicle id="a4i.60" type="car" depart="247.00">
        <route edges="a4i a3o"/>
    </vehicle>
    <vehicle id="a1i.67" type="car" depart="248.00">
        <route edges="a1i a4o"/>
    </vehicle>
    <vehicle id="a3i.52" type="car" depart="248.00">
        <route edges="a3i a4o"/>
    </vehicle>
    <vehicle id="a4i.61" type="car" depart="248.00">
        <route edges="a4i a2o"/>
    </vehicle>
    <vehicle id="a1i.68" type="car" depart="249.00">
        <route edges="a1i a4o"/>
    </vehicle>
    <vehicle id="a2i.63" type="car" depart="251.00">
        <route edges="a2i a1o"/>
    </vehicle>
    <vehicle id="a3i.53" type="car" depart="252.00">
        <route edges="a3i a2o"/>
    </vehicle>
    <vehicle id="a4i.62" type="car" depart="252.00">
        <route edges="a4i a1o"/>
    </vehicle>
    <vehicle id="a2i.64" type="car" depart="257.00">
        <route edges="a2i a1o"/>
    </vehicle>
    <vehicle id="a2i.65" type="car" depart="258.00">
        <route edges="a2i a3o"/>
    </vehicle>
    <vehicle id="a3i.54" type="car" depart="259.00">
        <route edges="a3i a1o"/>
    </vehicle>
    <vehicle id="a1i.69" type="car" depart="261.00">
        <route edges="a1i a4o"/>
    </vehicle>
    <vehicle id="a2i.66" type="car" depart="263.00">
        <route edges="a2i a3o"/>
    </vehicle>
    <vehicle id="a4i.63" type="car" depart="263.00">
        <route edges="a4i a2o"/>
    </vehicle>
    <vehicle id="a2i.67" type="car" depart="264.00">
        <route edges="a2i a4o"/>
    </vehicle>
    <vehicle id="a1i.70" type="car" depart="265.00">
        <route edges="a1i a2o"/>
    </vehicle>
    <vehicle id="a2i.68" type="car" depart="266.00">
        <route edges="a2i a1o"/>
    </vehicle>
    <vehicle id="a3i.55" type="car" depart="266.00">
        <route edges="a3i a4o"/>
    </vehicle>
    <vehicle id="a4i.64" type="car" depart="269.00">
        <route edges="a4i a2o"/>
    </vehicle>
    <vehicle id="a2i.69" type="car" depart="270.00">
        <route edges="a2i a4o"/>
    </vehicle>
    <vehicle id="a2i.70" type="car" depart="272.00">
        <route edges="a2i a4o"/>
    </vehicle>
    <vehicle id="a1i.71" type="car" depart="273.00">
        <route edges="a1i a2o"/>
    </vehicle>
    <vehicle id="a1i.72" type="car" depart="274.00">
        <route edges="a1i a3o"/>
    </vehicle>
    <vehicle id="a1i.73" type="car" depart="275.00">
        <route edges="a1i a2o"/>
    </vehicle>
    <vehicle id="a2i.71" type="car" depart="275.00">
        <route edges="a2i a3o"/>
    </vehicle>
    <vehicle id="a4i.65" type="car" depart="275.00">
        <route edges="a4i a2o"/>
    </vehicle>
    <vehicle id="a2i.72" type="car" depart="277.00">
        <route edges="a2i a1o"/>
    </vehicle>
    <vehicle id="a4i.66" type="car" depart="277.00">
        <route edges="a4i a3o"/>
    </vehicle>
    <vehicle id="a1i.74" type="car" depart="278.00">
        <route edges="a1i a2o"/>
    </vehicle>
    <vehicle id="a2i.73" type="car" depart="278.00">
        <route edges="a2i a4o"/>
    </vehicle>
    <vehicle id="a3i.56" type="car" depart="279.00">
        <route edges="a3i a4o"/>
    </vehicle>
    <vehicle id="a1i.75" type="car" depart="280.00">
        <route edges="a1i a3o"/>
    </vehicle>
    <vehicle id="a2i.74" type="car" depart="280.00">
        <route edges="a2i a4o"/>
    </vehicle>
    <vehicle id="a3i.57" type="car" depart="283.00">
        <route edges="a3i a1o"/>
    </vehicle>
    <vehicle id="a1i.76" type="car" depart="284.00">
        <route edges="a1i a3o"/>
    </vehicle>
    <vehicle id="a3i.58" type="car" depart="284.00">
        <route edges="a3i a4o"/>
    </vehicle>
    <vehicle id="a1i.77" type="car" depart="286.00">
        <route edges="a1i a2o"/>
    </vehicle>
    <vehicle id="a2i.75" type="car" depart="286.00">
        <route edges="a2i a3o"/>
    </vehicle>
    <vehicle id="a3i.59" type="car" depart="286.00">
        <route edges="a3i a2o"/>
    </vehicle>
    <vehicle id="a2i.76" type="car" depart="287.00">
        <route edges="a2i a3o"/>
    </vehicle>
    <vehicle id="a2i.77" type="car" depart="290.00">
        <route edges="a2i a3o"/>
    </vehicle>
    <vehicle id="a4i.67" type="car" depart="290.00">
        <route edges="a4i a1o"/>
    </vehicle>
    <vehicle id="a1i.78" type="car" depart="292.00">
        <route edges="a1i a4o"/>
    </vehicle>
    <vehicle id="a4i.68" type="car" depart="292.00">
        <route edges="a4i a3o"/>
    </vehicle>
    <vehicle id="a1i.79" type="car" depart="294.00">
        <route edges="a1i a2o"/>
    </vehicle>
    <vehicle id="a2i.78" type="car" depart="294.00">
        <route edges="a2i a3o"/>
    </vehicle>